28
B12C2H14-4
    B  -0.021029   1.582469   0.017999
    B  -0.455013   0.766210   1.679908
    B   1.218697   0.765149   1.219344
    B   0.455013   0.759373  -1.657940
    B  -1.687470   0.760414   0.465975
    B  -1.211937   0.788129  -1.214710
    B   0.455013  -0.766210   1.679908
    B  -1.218697  -0.765149   1.219344
    B  -0.455013  -0.759373  -1.657940
    B   1.687470  -0.760414   0.465975
    B   1.211937  -0.788129  -1.214710
    B   0.021029  -1.582469   0.017999
    H   1.997184  -1.288883  -1.937757
    H   2.739179  -1.255447   0.665230
    H   0.716247  -1.358478   2.668980
    H  -2.002801  -1.376628   1.854869
    H  -2.458579  -1.188832  -0.666787
    H  -0.799943  -1.354686  -2.616311
    H  -0.088752  -2.755978  -0.023526
    H   2.458579   1.188832  -0.666787
    H   2.002801   1.376628   1.854869
    H  -0.716247   1.358478   2.668980
    H  -2.739179   1.255447   0.665230
    H  -1.997184   1.288883  -1.937757
    H   0.799943   1.354686  -2.616311
    H   0.088752   2.755978  -0.023526
    C   1.548215   0.661164  -0.416264
    C  -1.548215  -0.661164  -0.416264
