30
B13C2H15-6
    B  -0.138557  -1.474758   0.850645
    B  -0.844723   0.043594   1.643698
    B  -1.872974  -0.815276   0.473685
    B  -0.883847  -1.449612  -0.835888
    B   0.802067  -1.501626  -0.781854
    B   0.844626  -0.046751   1.643624
    B   0.138281   1.473139   0.853298
    B   1.872908   0.814457   0.475282
    B   1.790694  -0.033505  -1.022062
    B  -1.790583   0.035388  -1.022091
    B   0.000044   0.001533  -1.689435
    B   0.883914   1.451140  -0.833233
    B  -0.802002   1.503066  -0.779290
    H  -0.044117  -2.478637   1.463455
    H  -1.291388  -2.396633  -1.415122
    H   1.265833  -2.466648  -1.279228
    H   2.526761  -1.418991   0.767245
    H   1.287622  -0.120512   2.734956
    H  -1.287759   0.115411   2.735142
    H  -2.849004  -1.326059   0.891660
    H   0.043879   2.475893   1.467950
    H   2.848803   1.324609   0.894335
    H   2.722457  -0.161592  -1.731534
    H   0.000079   0.002564  -2.871842
    H  -2.722359   0.164769  -1.731314
    H  -2.526670   1.417777   0.769758
    H  -1.265761   2.468976  -1.274937
    H   1.291491   2.399212  -1.410723
    C  -1.708449   0.801017   0.426393
    C   1.708598  -0.801695   0.424990
