36
B16C2H18-5
    B  -2.079379  -0.936257   0.383763
    B   1.060304   1.627433   0.531782
    B   2.079308   0.167300   0.998096
    B   1.057452  -0.328180  -1.677562
    B   0.627728   1.401743  -1.299957
    B   0.630844  -1.825333  -0.544416
    B  -0.627584   0.365887  -1.876452
    B  -1.057354   1.598669  -0.605426
    B   0.631957   0.432956   1.863903
    B   1.031802  -1.259342   1.165371
    B  -0.630897   1.424818   1.264199
    B  -1.031954  -0.326485   1.684372
    B  -0.632100  -1.812121   0.614486
    B  -1.060266  -1.309656  -1.102780
    B  -2.078401   0.134300  -1.008566
    B   2.078462   0.786221  -0.645559
    H  -3.106344  -1.430353   0.683674
    H  -0.897598  -2.903656   0.987898
    H  -1.517155  -0.518843   2.742877
    H  -2.832737   1.211444   0.911011
    H  -3.117395   0.243550  -1.554336
    H  -1.434268  -2.123065  -1.874392
    H   1.516930  -2.057519   1.886770
    H   0.952677  -2.892876  -0.932306
    H   0.897385   0.690984   2.988333
    H  -0.952722   2.317167   1.966925
    H  -1.509720   2.663317  -0.835368
    H  -0.866990   0.526412  -3.024536
    H   1.509877  -0.693962  -2.703477
    H   0.867230   2.292769  -2.041503
    H   1.434282   2.711903   0.816317
    H   3.117503   1.192405  -1.025977
    H   2.832748  -1.412867  -0.549091
    H   3.106221   0.172825   1.576155
    C  -1.934493   0.724530   0.557891
    C   1.934476  -0.856059  -0.321476
