14
B5C2H7-0
    B   1.382502  -0.000022  -0.000040
    B  -1.132373  -0.824620   0.000025
    B  -1.132347   0.824655   0.000042
    B  -0.039598   0.000013  -1.167736
    B  -0.039529  -0.000012   1.167737
    H   0.061661  -0.000030   2.340879
    H   0.061522   0.000030  -2.340884
    H  -2.012133  -1.609293   0.000045
    H   0.734648  -2.204603  -0.000044
    H  -2.012083   1.609354   0.000075
    H   0.734723   2.204591   0.000002
    H   2.560145  -0.000039  -0.000076
    C   0.389872   1.181116   0.000001
    C   0.389835  -1.181128  -0.000024
