22
B9C2H11-7
    B  -0.241523  -0.101157   2.015265
    B   0.073264   1.548635  -0.465565
    B  -1.379285   0.485377  -0.693411
    B   1.160934   0.212220  -1.098022
    B   0.957007  -1.278056  -0.139806
    B  -0.852043   0.966242   0.924943
    B   1.065601   0.512849   0.788321
    B  -0.939517  -0.955532   0.473240
    B  -0.304229  -0.860500  -1.328089
    H  -0.455198  -0.058855   3.176420
    H  -1.776152  -1.766409   0.672336
    H  -1.535254   1.789328   1.440664
    H   2.021771   1.015073   1.268610
    H   1.078163  -1.894495   1.965210
    H   2.174964   0.288772  -1.698237
    H   0.250525   2.713150  -0.541491
    H  -2.505877   0.697357  -0.974643
    H   1.666490  -2.185385  -0.423859
    H  -0.323516   1.034410  -2.762609
    H  -0.539592  -1.699088  -2.125518
    C   0.614063  -1.129036   1.352357
    C  -0.210594   0.665102  -1.756755
