24
B10C2H12
    B   1.693356   0.000563  -0.001829
    B   0.755725  -0.468382   1.441468
    B  -0.756706  -1.217722   0.886895
    B   0.752624  -0.462856  -1.435682
    B  -1.675177  -0.001652   0.005334
    B  -0.744302   0.463904  -1.427551
    B   0.752654   1.218377  -0.889361
    B   0.754754   1.218600   0.886381
    B  -0.756725   0.463530   1.433375
    B   0.754745  -1.505891   0.001041
    H   1.271348  -0.796756   2.451802
    H   2.874158   0.005079  -0.015280
    H   1.237446  -0.803407  -2.455399
    H   1.245209  -2.578640  -0.029008
    H  -1.313313  -2.078860   1.469550
    H  -1.211541  -1.906988  -1.406978
    H  -1.299150   0.784975  -2.415131
    H  -2.852157   0.008070  -0.024749
    H  -1.313669   0.817870   2.410681
    H   1.244639   2.104419   1.492592
    H   1.237111   2.093302  -1.514410
    H  -1.211569   2.368564  -0.017462
    C  -0.719608   1.426009  -0.004171
    C  -0.719850  -1.152107  -0.842108
