24
B10C2H12
    B   1.694828   0.004829  -0.003386
    B   0.757252  -0.466140   1.442788
    B  -0.763236  -1.224619   0.889658
    B  -0.758787  -1.224315  -0.892647
    B   0.755919  -0.466725  -1.443020
    B  -1.690701   0.001633  -0.001300
    B   0.754269   1.224517  -0.889577
    B   0.755833   1.228166   0.889827
    B  -0.758877   0.470580   1.440202
    B   0.756777  -1.514734  -0.002380
    H   1.287269  -0.787974   2.458303
    H   2.884305   0.016715  -0.012005
    H   1.273889  -0.779615  -2.466298
    H   1.286856  -2.580112  -0.010372
    H  -1.308261  -2.079986   1.511171
    H  -1.302081  -2.067544  -1.530665
    H  -1.248375   0.779335  -2.363127
    H  -2.878391   0.021915  -0.016029
    H  -1.302387   0.816894   2.439188
    H   1.273588   2.104830   1.503566
    H   1.262946   2.092979  -1.520583
    H  -1.247977   2.486953  -0.010852
    C  -0.742110   1.486203   0.003500
    C  -0.742549   0.456217  -1.415960
