24
B10C2H12
    B   1.710588  -0.003026   0.002298
    B   0.764656  -0.476977   1.448192
    B  -0.761395  -1.239264   0.900344
    B  -0.748743  -1.239208  -0.879747
    B   0.769083  -0.480162  -1.431144
    B  -1.691494  -0.026859   0.019436
    B   0.785914   1.212073  -0.880608
    B   0.768942   1.212790   0.898954
    B  -0.748874   0.453708   1.450378
    B   0.764736  -1.524680   0.006189
    H   1.286293  -0.782484   2.463581
    H   2.891293   0.026609  -0.019118
    H   1.181177  -0.709579  -2.512027
    H   1.286473  -2.584730  -0.016977
    H  -1.321988  -2.080493   1.511466
    H  -1.335174  -1.968041  -1.597842
    H  -1.183315   0.790824  -2.168464
    H  -2.850087   0.141794  -0.103265
    H  -1.335422   0.911436   2.365368
    H   1.180977   2.169873   1.451202
    H   1.117361   2.125969  -1.544515
    H  -1.183303   2.306569  -0.082117
    C  -0.673892   1.359724   0.016863
    C  -0.673804   0.404135  -1.298448
