24
B10C2H12
    B   1.711170  -0.003247   0.002445
    B   0.767173  -0.479866   1.450893
    B  -0.761433  -1.239775   0.900731
    B  -0.747832  -1.239478  -0.880429
    B   0.768667  -0.481306  -1.431139
    B  -1.683518  -0.020808   0.015171
    B   0.775704   1.208963  -0.878374
    B   0.768358   1.212513   0.899962
    B  -0.747783   0.454036   1.450905
    B   0.767076  -1.528146   0.008151
    H   1.286379  -0.777514   2.470063
    H   2.891461   0.039724  -0.028697
    H   1.187439  -0.703586  -2.511136
    H   1.286257  -2.589434  -0.023647
    H  -1.336646  -2.074726   1.507272
    H  -1.341984  -1.968201  -1.592533
    H  -1.183389   0.792863  -2.166735
    H  -2.844864   0.136555  -0.099234
    H  -1.342070   0.906034   2.363980
    H   1.186933   2.171086   1.445023
    H   1.120862   2.119770  -1.540101
    H  -1.184006   2.305577  -0.084512
    C  -0.672218   1.359198   0.021290
    C  -0.671738   0.399767  -1.299350
