24
B10C2H12
    B   1.684479   0.004125   0.000000
    B   0.752390  -0.462147   1.434797
    B  -0.756293  -1.216710   0.886727
    B  -0.756293  -1.216710  -0.886727
    B   0.752390  -0.462147  -1.434797
    B  -1.684479  -0.004125   0.000000
    B  -0.752390   0.462147  -1.434797
    B   0.756293   1.216710  -0.886727
    B   0.756293   1.216710   0.886727
    B  -0.752390   0.462147   1.434797
    H   1.287536  -0.812545   2.425370
    H   2.863298  -0.024162   0.000000
    H   1.287536  -0.812545  -2.425370
    H   1.190888  -2.380840   0.000000
    H  -1.262894  -2.087701   1.499123
    H  -1.262894  -2.087701  -1.499123
    H  -1.287536   0.812545  -2.425370
    H  -2.863298   0.024162   0.000000
    H  -1.287536   0.812545   2.425370
    H   1.262894   2.087701   1.499123
    H   1.262894   2.087701  -1.499123
    H  -1.190888   2.380840   0.000000
    C  -0.714619   1.428656   0.000000
    C   0.714619  -1.428656   0.000000
