24
B10C2H12
    B   1.692534   0.002624   0.000000
    B   0.756425  -0.465597   1.441207
    B  -0.758889  -1.223481   0.890629
    B  -0.758889  -1.223481  -0.890629
    B   0.756425  -0.465597  -1.441207
    B  -1.692534  -0.002624   0.000000
    B  -0.756425   0.465597  -1.441207
    B   0.758889   1.223481  -0.890629
    B   0.758889   1.223481   0.890629
    B  -0.756425   0.465597   1.441207
    H   1.290199  -0.800892   2.448566
    H   2.880857  -0.005099   0.000000
    H   1.290199  -0.800892  -2.448566
    H   1.243553  -2.485909   0.000000
    H  -1.284662  -2.088243   1.513365
    H  -1.284662  -2.088243  -1.513365
    H  -1.290199   0.800892  -2.448566
    H  -2.880857   0.005099   0.000000
    H  -1.290199   0.800892   2.448566
    H   1.284662   2.088243   1.513365
    H   1.284662   2.088243  -1.513365
    H  -1.243553   2.485909   0.000000
    C  -0.742031   1.483440   0.000000
    C   0.742031  -1.483440   0.000000
