26
B11C2H13
    B   0.013930   0.000000   2.108335
    B   0.033833   1.388736   1.272277
    B  -1.361327   0.000000   0.840106
    B   0.033833  -1.388736   1.272277
    B   1.313053   0.000000   0.896662
    B  -0.894355   1.477316  -0.267156
    B  -1.448235   0.000000  -0.988210
    B  -0.894355  -1.477316  -0.267156
    B   1.402138   0.000000  -0.969003
    B  -0.009598   0.880789  -1.647971
    B  -0.009598  -0.880789  -1.647971
    H  -0.039564   0.000000   3.287481
    H   0.081886  -2.443532   1.806002
    H   2.436850   0.000000   1.256158
    H   0.081886   2.443532   1.806002
    H  -2.418835   0.000000   1.368759
    H  -1.430418   2.525298  -0.340057
    H   1.408613   2.243554  -0.355303
    H   2.469765   0.000000  -1.464213
    H   1.408613  -2.243554  -0.355303
    H  -1.430418  -2.525298  -0.340057
    H  -2.491744   0.000000  -1.542412
    H   0.085694   1.523035  -2.631900
    H   0.085694  -1.523035  -2.631900
    C   0.786329  -1.364690  -0.256229
    C   0.786329   1.364690  -0.256229
