26
B11C2H13
    B   0.008609   1.388775   1.282999
    B  -1.388375   0.000000   0.829346
    B   0.008609  -1.388775   1.282999
    B   1.350535   0.000000   0.831448
    B  -0.884142   1.511907  -0.272471
    B  -1.438177   0.000000  -0.983979
    B   0.868318   1.495009  -0.269475
    B  -0.884142  -1.511907  -0.272471
    B   0.868318  -1.495009  -0.269475
    B  -0.020043   0.888077  -1.637720
    B  -0.020043  -0.888077  -1.637720
    H  -0.001128   0.000000   2.990005
    H   0.033642  -2.339464   1.984534
    H   2.426638   0.000000   1.309344
    H   0.033642   2.339464   1.984534
    H  -2.416617   0.000000   1.409149
    H  -1.506267   2.516264  -0.318945
    H   1.623296   2.396206  -0.373678
    H   2.235553   0.000000  -1.371475
    H   1.623296  -2.396206  -0.373678
    H  -1.506267  -2.516264  -0.318945
    H  -2.502246   0.000000  -1.497957
    H   0.120025   1.417789  -2.681441
    H   0.120025  -1.417789  -2.681441
    C  -0.014596   0.000000   1.905678
    C   1.261533   0.000000  -0.896182
