26
B11C2H13
    B  -0.267339   0.340709   1.775308
    B   0.688534   1.563999   1.154031
    B  -1.534035  -0.393036   0.742316
    B  -0.126363  -1.336592   1.240891
    B   1.274572  -0.255606   1.099080
    B  -0.918875   1.277590   0.164262
    B  -1.464806  -0.057233  -0.968626
    B  -0.860430  -1.626570  -0.333288
    B   0.927568  -1.426199  -0.198189
    B  -0.110121   0.908601  -1.536925
    B   0.007444  -0.828446  -1.634050
    H  -0.499837   0.535570   2.919436
    H  -0.121963  -2.182000   2.067927
    H   2.391980  -0.233317   1.480527
    H   1.030042   2.472219   1.825927
    H  -2.589575  -0.461407   1.272007
    H  -1.548340   2.275633   0.212879
    H   1.366645   2.357009  -0.842765
    H   2.213101   0.098414  -1.428511
    H   1.740698  -2.260200  -0.393679
    H  -1.396247  -2.654445  -0.560658
    H  -2.456176   0.060340  -1.601810
    H  -0.046211   1.531446  -2.536452
    H   0.168782  -1.288929  -2.708031
    C   1.267408   0.053903  -0.904165
    C   0.863542   1.528545  -0.354456
