26
B11C2H13
    B   0.024409   0.084409   2.070733
    B  -1.372231  -0.042404   0.802594
    B   0.067041  -1.330701   1.237012
    B   1.376824  -0.066509   0.804125
    B  -0.895343   1.490788  -0.249606
    B  -1.440935  -0.002505  -0.999046
    B   0.898031   1.463109  -0.210677
    B  -0.895135  -1.494582  -0.278475
    B   1.421650  -0.021136  -0.977011
    B   0.007548   0.904068  -1.621038
    B  -0.012979  -0.865003  -1.660268
    H   0.008681   0.106865   3.249965
    H   0.135921  -2.321084   1.877765
    H   2.427614  -0.092169   1.341186
    H  -0.135708   2.263539   1.736593
    H  -2.377987   0.023137   1.417468
    H  -1.512029   2.498456  -0.274648
    H   1.576564   2.430398  -0.204502
    H   2.475550  -0.098297  -1.501481
    H   1.353721  -2.308656  -0.380408
    H  -1.444147  -2.537629  -0.306843
    H  -2.488832   0.009636  -1.545866
    H   0.026321   1.493978  -2.644279
    H   0.071717  -1.507929  -2.644800
    C  -0.067045   1.321322   1.195227
    C   0.770780  -1.401103  -0.280733
