26
B11C2H13
    B   0.113362   0.167752   2.041680
    B  -1.382253  -0.021370   0.807784
    B   0.127107  -1.313980   1.237778
    B   1.463948  -0.221054   0.745273
    B  -0.903371   1.522347  -0.261778
    B  -1.430981   0.004610  -1.022919
    B   0.903468   1.430098  -0.115597
    B  -0.920311  -1.450910  -0.241759
    B   1.436938   0.001339  -0.989223
    B   0.020722   0.899568  -1.602835
    B  -0.011973  -0.849745  -1.655591
    H   0.147026   0.142772   3.222130
    H   0.186391  -2.271468   1.926467
    H   2.520273  -0.289911   1.272551
    H  -0.493271   2.290167   1.742421
    H  -2.377809   0.009333   1.442844
    H  -1.496482   2.535496  -0.399079
    H   1.597736   2.384790  -0.062425
    H   2.477294  -0.048968  -1.542831
    H   1.328612  -2.367860  -0.439348
    H  -1.485872  -2.486201  -0.251284
    H  -2.465320   0.031670  -1.594652
    H   0.026561   1.493274  -2.624585
    H   0.077779  -1.522778  -2.620469
    C  -0.255978   1.374530   1.211549
    C   0.796403  -1.443500  -0.273113
