26
B11C2H13
    B   0.006890   1.396296   1.281217
    B  -1.384996   0.000000   0.828057
    B   0.006890  -1.396296   1.281217
    B   1.357211   0.000000   0.836238
    B  -0.886522   1.514697  -0.275656
    B  -1.433659   0.000000  -0.979781
    B   0.863432   1.509046  -0.272258
    B  -0.886522  -1.514697  -0.275656
    B   0.863432  -1.509046  -0.272258
    B  -0.018511   0.888499  -1.638076
    B  -0.018511  -0.888499  -1.638076
    H   0.008485   0.000000   2.981533
    H   0.023713  -2.332937   2.001816
    H   2.434206   0.000000   1.312475
    H   0.023713   2.332937   2.001816
    H  -2.410948   0.000000   1.411936
    H  -1.522923   2.510086  -0.323155
    H   1.622319   2.406129  -0.383974
    H   2.239903   0.000000  -1.365081
    H   1.622319  -2.406129  -0.383974
    H  -1.522923  -2.510086  -0.323155
    H  -2.500539   0.000000  -1.488913
    H   0.125246   1.403789  -2.688638
    H   0.125246  -1.403789  -2.688638
    C  -0.006713   0.000000   1.899194
    C   1.269760   0.000000  -0.885224
