26
B11C2H13
    B   0.000000   1.401194   1.279390
    B  -1.380186  -0.009466   0.839497
    B   0.000000  -1.387798   1.278327
    B   1.380186  -0.009466   0.839497
    B  -0.878630   1.518501  -0.275428
    B  -1.420332   0.015445  -0.962144
    B   0.878630   1.518501  -0.275428
    B  -0.880461  -1.499450  -0.261177
    B   0.880461  -1.499450  -0.261177
    B   1.420332   0.015445  -0.962144
    B   0.000000   0.894824  -1.635722
    H   0.000000   0.001771   2.982884
    H   0.000000  -2.328558   1.994602
    H   2.418272  -0.023326   1.401009
    H   0.000000   2.336997   2.002137
    H  -2.418272  -0.023326   1.401009
    H  -1.550116   2.490293  -0.329955
    H   1.550116   2.490293  -0.329955
    H   2.431699  -0.070174  -1.563450
    H   1.500396  -2.486017  -0.445756
    H  -1.500396  -2.486017  -0.445756
    H  -2.431699  -0.070174  -1.563450
    H   0.000000   1.335110  -2.729439
    H   0.000000  -1.327261  -2.436267
    C   0.000000   0.009903   1.900530
    C   0.000000  -0.807793  -1.488646
