26
B11C2H13
    B   0.006261   1.396189   1.280707
    B  -1.383427   0.000000   0.828870
    B   0.006261  -1.396189   1.280707
    B   1.357527   0.000000   0.836453
    B  -0.886265   1.514821  -0.275647
    B  -1.432560   0.000000  -0.979331
    B   0.863056   1.509715  -0.272760
    B  -0.886265  -1.514821  -0.275647
    B   0.863056  -1.509715  -0.272760
    B  -0.018067   0.888212  -1.637351
    B  -0.018067  -0.888212  -1.637351
    H   0.009942   0.000000   2.980947
    H   0.021671  -2.332278   2.002058
    H   2.434419   0.000000   1.312915
    H   0.021671   2.332278   2.002058
    H  -2.409698   0.000000   1.412185
    H  -1.524399   2.509013  -0.323679
    H   1.622706   2.406151  -0.384402
    H   2.240225   0.000000  -1.364272
    H   1.622706  -2.406151  -0.384402
    H  -1.524399  -2.509013  -0.323679
    H  -2.499053   0.000000  -1.489286
    H   0.123654   1.402025  -2.688913
    H   0.123654  -1.402025  -2.688913
    C  -0.005712   0.000000   1.898120
    C   1.271100   0.000000  -0.883642
