26
B11C2H13
    B   0.000000   0.169953   2.058510
    B  -1.413089  -0.156075   0.783923
    B   0.000000  -1.297622   1.231023
    B   1.413089  -0.156075   0.783923
    B  -0.899880   1.468488  -0.189054
    B  -1.433309  -0.012525  -0.968975
    B   0.899880   1.468488  -0.189054
    B  -0.878205  -1.539425  -0.281044
    B   0.878205  -1.539425  -0.281044
    B   1.433309  -0.012525  -0.968975
    B   0.000000   0.904750  -1.578313
    H   0.000000   0.129968   3.239333
    H   0.000000  -2.206591   1.988673
    H   2.426559  -0.082781   1.385205
    H   0.000000   2.390823   1.726284
    H  -2.426559  -0.082781   1.385205
    H  -1.551197   2.452318  -0.266787
    H   1.551197   2.452318  -0.266787
    H   2.407600  -0.019988  -1.633294
    H   1.481486  -2.530755  -0.490609
    H  -1.481486  -2.530755  -0.490609
    H  -2.407600  -0.019988  -1.633294
    H   0.000000   1.400623  -2.647711
    H   0.000000  -1.280727  -2.469875
    C   0.000000  -0.790566  -1.506913
    C   0.000000   1.420873   1.233244
