26
B11C2H13
    B  -0.263291   0.336726   1.782405
    B   0.685517   1.560805   1.164735
    B  -1.529806  -0.377870   0.740010
    B  -0.126251  -1.331397   1.242966
    B   1.274691  -0.267816   1.110176
    B  -0.901752   1.281895   0.150328
    B  -1.460902  -0.060365  -0.973847
    B  -0.856270  -1.625990  -0.333498
    B   0.929593  -1.420777  -0.198158
    B  -0.110938   0.906802  -1.553604
    B   0.007644  -0.830026  -1.637740
    H  -0.501128   0.517185   2.928431
    H  -0.137213  -2.191035   2.055289
    H   2.396799  -0.251495   1.477769
    H   1.051954   2.477161   1.811895
    H  -2.582111  -0.424830   1.278122
    H  -1.547504   2.269084   0.210682
    H   1.328146   2.366599  -0.829706
    H   2.219553   0.110304  -1.415271
    H   1.738512  -2.259865  -0.389195
    H  -1.385748  -2.659014  -0.551590
    H  -2.455873   0.052410  -1.602558
    H  -0.052380   1.534828  -2.549658
    H   0.173496  -1.296438  -2.708292
    C   1.269479   0.059058  -0.903004
    C   0.835782   1.524059  -0.353700
