26
B11C2H13
    B  -0.243971   0.338755   1.784349
    B   0.733306   1.542506   1.160660
    B  -1.540373  -0.415103   0.719923
    B  -0.154517  -1.319734   1.243724
    B   1.278799  -0.271251   1.143646
    B  -0.890504   1.263623   0.124351
    B  -1.462071  -0.072346  -0.958095
    B  -0.870787  -1.631152  -0.328480
    B   0.922286  -1.410630  -0.192147
    B  -0.105930   0.899077  -1.567216
    B   0.007004  -0.842058  -1.635700
    H  -0.484799   0.523033   2.930826
    H  -0.164732  -2.176469   2.059379
    H   2.394651  -0.226324   1.523981
    H   1.164213   2.470059   1.751076
    H  -2.605839  -0.429567   1.232421
    H  -1.532323   2.248593   0.237446
    H   1.251977   2.383848  -0.824199
    H   2.220292   0.133570  -1.386350
    H   1.733267  -2.244588  -0.402324
    H  -1.377608  -2.667446  -0.584765
    H  -2.455830   0.065159  -1.585616
    H  -0.061394   1.552461  -2.548007
    H   0.193213  -1.305459  -2.704405
    C   1.258687   0.071305  -0.888660
    C   0.792983   1.520138  -0.352829
