26
B11C2H13
    B  -0.132264   0.226737   1.944178
    B   0.592340   1.500764   1.161347
    B  -1.452791  -0.281342   0.769737
    B  -0.129401  -1.346400   1.253071
    B   1.307543  -0.319353   1.117964
    B  -0.921279   1.357676  -0.069029
    B  -1.456281  -0.046089  -0.983678
    B  -0.866586  -1.611953  -0.318775
    B   0.913037  -1.411358  -0.200202
    B  -0.104499   0.905621  -1.625965
    B   0.019362  -0.841474  -1.623259
    H  -0.279632   0.364245   3.109239
    H  -0.208320  -2.243184   2.019871
    H   2.433922  -0.323956   1.472536
    H   0.836832   2.490395   1.763239
    H  -2.523907  -0.255946   1.274665
    H  -1.558561   2.338025   0.088494
    H   1.252483   2.393814  -0.774604
    H   2.222062   0.161767  -1.334321
    H   1.743624  -2.223500  -0.421027
    H  -1.416349  -2.629209  -0.557896
    H  -2.475383   0.017969  -1.579990
    H  -0.004584   1.489352  -2.645555
    H   0.196212  -1.339044  -2.678003
    C   1.261722   0.103997  -0.838741
    C   0.750696   1.522446  -0.370307
