26
B11C2H13
    B   0.218857   0.246466   1.963694
    B  -1.371392   0.035530   0.841470
    B   0.126490  -1.302590   1.236071
    B   1.546293  -0.310848   0.725470
    B  -0.917402   1.542078  -0.269348
    B  -1.409320  -0.001101  -1.039037
    B   0.888782   1.398211  -0.016949
    B  -0.910689  -1.426301  -0.213168
    B   1.437614   0.004807  -0.969978
    B   0.036759   0.885503  -1.578970
    B  -0.010359  -0.849622  -1.644674
    H   0.347818   0.230989   3.138464
    H   0.147227  -2.212301   1.986112
    H   2.614149  -0.433873   1.216159
    H  -0.740245   2.255031   1.754821
    H  -2.394295  -0.049643   1.424214
    H  -1.522623   2.528273  -0.507897
    H   1.602525   2.335713   0.053827
    H   2.476328   0.007121  -1.528580
    H   1.315772  -2.412674  -0.459812
    H  -1.540834  -2.423307  -0.236266
    H  -2.439234   0.014103  -1.617180
    H   0.058873   1.504623  -2.584604
    H   0.033219  -1.480259  -2.640170
    C  -0.400236   1.393297   1.198484
    C   0.805922  -1.479224  -0.279168
