26
B11C2H13
    B   0.000000   0.063984   2.077711
    B  -1.380250  -0.067947   0.808437
    B   0.000000  -1.358801   1.263534
    B   1.380250  -0.067947   0.808437
    B  -0.893742   1.488942  -0.234906
    B  -1.432208  -0.001037  -0.972125
    B   0.893742   1.488942  -0.234906
    B  -0.875300  -1.514737  -0.272256
    B   0.875300  -1.514737  -0.272256
    B   1.432208  -0.001037  -0.972125
    B   0.000000   0.898462  -1.604553
    H   0.000000   0.145170   3.255355
    H   0.000000  -2.324673   1.948831
    H   2.410085   0.022084   1.379562
    H   0.000000   2.241464   1.736423
    H  -2.410085   0.022084   1.379562
    H  -1.529880   2.483083  -0.266894
    H   1.529880   2.483083  -0.266894
    H   2.416662  -0.044942  -1.619615
    H   1.495524  -2.498922  -0.466608
    H  -1.495524  -2.498922  -0.466608
    H  -2.416662  -0.044942  -1.619615
    H   0.000000   1.387366  -2.677153
    H   0.000000  -1.294116  -2.452527
    C   0.000000  -0.792919  -1.492687
    C   0.000000   1.301017   1.186865
