26
B11C2H13
    B   0.000000   0.076358   2.079599
    B  -1.383705  -0.084948   0.803591
    B   0.000000  -1.350826   1.260728
    B   1.383705  -0.084948   0.803591
    B  -0.896061   1.489407  -0.231831
    B  -1.435170  -0.000185  -0.973648
    B   0.896061   1.489407  -0.231831
    B  -0.878785  -1.517634  -0.269552
    B   0.878785  -1.517634  -0.269552
    B   1.435170  -0.000185  -0.973648
    B   0.000000   0.903698  -1.604235
    H   0.000000   0.148263   3.258149
    H   0.000000  -2.311649   1.953494
    H   2.405506   0.011812   1.388508
    H   0.000000   2.257760   1.738632
    H  -2.405506   0.011812   1.388508
    H  -1.532194   2.483962  -0.261213
    H   1.532194   2.483962  -0.261213
    H   2.413461  -0.045606  -1.630604
    H   1.494227  -2.502536  -0.475412
    H  -1.494227  -2.502536  -0.475412
    H  -2.413461  -0.045606  -1.630604
    H   0.000000   1.381558  -2.681884
    H   0.000000  -1.296306  -2.451114
    C   0.000000  -0.792490  -1.494588
    C   0.000000   1.315091   1.194529
