26
B11C2H13
    B   0.033683   0.101585   2.072791
    B  -1.378920  -0.048883   0.796149
    B   0.092832  -1.323236   1.236339
    B   1.390070  -0.107582   0.785644
    B  -0.897440   1.498685  -0.252906
    B  -1.442809   0.001996  -1.006187
    B   0.902279   1.455045  -0.194409
    B  -0.907076  -1.483971  -0.271050
    B   1.426743  -0.014883  -0.984954
    B   0.008814   0.906770  -1.619319
    B  -0.013893  -0.858719  -1.662833
    H   0.016912   0.107976   3.252725
    H   0.172658  -2.308505   1.884377
    H   2.439419  -0.141205   1.327448
    H  -0.219351   2.277123   1.734731
    H  -2.369918   0.031653   1.433487
    H  -1.500337   2.514616  -0.293709
    H   1.584598   2.419976  -0.170536
    H   2.476750  -0.096177  -1.516636
    H   1.343006  -2.320045  -0.399985
    H  -1.443875  -2.533945  -0.285917
    H  -2.487321   0.023415  -1.560137
    H   0.021830   1.494602  -2.644357
    H   0.086079  -1.523784  -2.631649
    C  -0.109899   1.334081   1.201323
    C   0.775166  -1.406589  -0.277444
