26
B11C2H13
    B   0.018681   0.063562   2.063105
    B  -1.360719  -0.017792   0.815339
    B   0.033288  -1.344475   1.238347
    B   1.365047  -0.025530   0.821711
    B  -0.887809   1.484348  -0.245383
    B  -1.434099  -0.008501  -0.986086
    B   0.889469   1.469439  -0.225135
    B  -0.878836  -1.497892  -0.279093
    B   1.416318  -0.023080  -0.966643
    B   0.004972   0.893081  -1.620677
    B  -0.006879  -0.875880  -1.647273
    H   0.013021   0.094004   3.241159
    H   0.074456  -2.341689   1.867249
    H   2.420387  -0.043671   1.344866
    H  -0.053266   2.250054   1.752821
    H  -2.394988   0.008792   1.380744
    H  -1.524900   2.476936  -0.279232
    H   1.562050   2.438381  -0.250725
    H   2.471124  -0.075376  -1.489747
    H   1.391090  -2.302762  -0.352959
    H  -1.468977  -2.516300  -0.331608
    H  -2.483482  -0.010416  -1.525960
    H   0.023468   1.480337  -2.643249
    H   0.043737  -1.481464  -2.655880
    C  -0.024100   1.313932   1.204310
    C   0.790948  -1.408039  -0.277012
