26
B11C2H13
    B  -0.028981   1.367859   1.277358
    B  -1.381608   0.000000   0.822620
    B  -0.028981  -1.367859   1.277358
    B  -0.893656   1.497188  -0.258958
    B  -1.433384   0.000000  -0.997621
    B   0.871349   1.488697  -0.247981
    B  -0.893656  -1.497188  -0.258958
    B   0.871349  -1.488697  -0.247981
    B   1.418102   0.000000  -0.987629
    B   0.002768   0.890598  -1.636931
    B   0.002768  -0.890598  -1.636931
    H   0.145540   0.000000   2.995382
    H   0.025291  -2.333194   1.956581
    H   2.235728   0.000000   1.264512
    H   0.025291   2.333194   1.956581
    H  -2.416967   0.000000   1.387733
    H  -1.536117   2.487892  -0.300755
    H   1.579638   2.432324  -0.244798
    H   2.503399   0.000000  -1.451151
    H   1.579638  -2.432324  -0.244798
    H  -1.536117  -2.487892  -0.300755
    H  -2.490595   0.000000  -1.524866
    H   0.033987   1.479361  -2.658933
    H   0.033987  -1.479361  -2.658933
    C   1.289773   0.000000   0.749885
    C   0.021453   0.000000   1.922959
