26
B11C2H13
    B   0.009088   1.373553   1.285509
    B  -1.382888   0.000000   0.831901
    B   0.009088  -1.373553   1.285509
    B   1.346198   0.000000   0.827413
    B  -0.880758   1.504306  -0.268546
    B  -1.436405   0.000000  -0.986162
    B   0.873279   1.481634  -0.267085
    B  -0.880758  -1.504306  -0.268546
    B   0.873279  -1.481634  -0.267085
    B  -0.016441   0.885748  -1.635415
    B  -0.016441  -0.885748  -1.635415
    H  -0.005664   0.000000   3.003661
    H   0.035648  -2.338441   1.966331
    H   2.420035   0.000000   1.309039
    H   0.035648   2.338441   1.966331
    H  -2.417769   0.000000   1.398508
    H  -1.501518   2.508059  -0.319326
    H   1.614611   2.394095  -0.362393
    H   2.246181   0.000000  -1.383709
    H   1.614611  -2.394095  -0.362393
    H  -1.501518  -2.508059  -0.319326
    H  -2.494974   0.000000  -1.509274
    H   0.099583   1.428959  -2.674300
    H   0.099583  -1.428959  -2.674300
    C  -0.016755   0.000000   1.920646
    C   1.275056   0.000000  -0.908585
