26
B11C2H13
    B   0.344249   0.374305   1.811704
    B  -1.357039  -0.062015   0.874752
    B   0.085388  -1.275054   1.206681
    B   1.540749  -0.395044   0.748256
    B  -1.039131   1.568251  -0.295910
    B  -1.405431   0.002305  -1.086583
    B   0.923752   1.316849   0.155514
    B  -0.925381  -1.427606  -0.220742
    B   1.423029  -0.009122  -0.960127
    B   0.046292   0.879431  -1.542978
    B  -0.006838  -0.851231  -1.659145
    H   0.618034   0.515745   2.953220
    H   0.113583  -2.144558   2.003443
    H   2.591052  -0.645249   1.223527
    H  -0.798517   2.251528   1.788887
    H  -2.359139  -0.164423   1.490007
    H  -1.696690   2.510089  -0.576551
    H   1.638531   2.252946   0.233037
    H   2.462245   0.007242  -1.518243
    H   1.307542  -2.401307  -0.456910
    H  -1.558859  -2.422310  -0.252579
    H  -2.428702   0.041186  -1.678023
    H   0.134840   1.589360  -2.484596
    H   0.066502  -1.488068  -2.648728
    C  -0.516736   1.441718   1.127970
    C   0.796676  -1.464967  -0.282894
