26
B11C2H13
    B  -0.040014   0.082110   2.052885
    B   0.340282   1.432516   1.212885
    B  -1.358245  -0.119534   0.804735
    B  -0.096932  -1.372197   1.265393
    B   1.344650  -0.190825   1.029353
    B  -0.936827   1.419249  -0.208267
    B  -1.456637  -0.025916  -0.985962
    B  -0.864145  -1.555477  -0.310615
    B   0.890171  -1.454801  -0.228192
    B  -0.088805   0.908047  -1.664299
    B   0.012850  -0.858634  -1.634033
    H  -0.125304   0.164287   3.227425
    H  -0.218603  -2.340298   1.934236
    H   2.490090  -0.151370   1.314777
    H   0.430439   2.466784   1.780996
    H  -2.412881  -0.096158   1.344378
    H  -1.516675   2.442078  -0.120000
    H   1.331701   2.338060  -0.604197
    H   2.224362   0.115026  -1.343204
    H   1.714471  -2.284082  -0.394098
    H  -1.475168  -2.556037  -0.449436
    H  -2.508153  -0.032963  -1.524356
    H   0.112243   1.477238  -2.675658
    H   0.198863  -1.353081  -2.688503
    C   1.266904   0.073261  -0.841214
    C   0.741362   1.472718  -0.342041
