26
B11C2H13
    B   0.334966   0.367203   1.827636
    B  -1.364027  -0.063737   0.866499
    B   0.084245  -1.278231   1.208123
    B   1.539219  -0.388431   0.748023
    B  -1.018577   1.568710  -0.293333
    B  -1.407476   0.001090  -1.082520
    B   0.910794   1.330198   0.136679
    B  -0.926835  -1.428254  -0.221941
    B   1.425606  -0.011294  -0.962113
    B   0.044839   0.880674  -1.545598
    B  -0.006017  -0.849558  -1.658299
    H   0.603870   0.496158   2.972022
    H   0.112389  -2.147479   2.004905
    H   2.589504  -0.631487   1.227458
    H  -0.802692   2.247922   1.789303
    H  -2.361919  -0.153782   1.490574
    H  -1.669498   2.519353  -0.559140
    H   1.632099   2.261701   0.208663
    H   2.460450   0.002975  -1.527848
    H   1.313148  -2.397955  -0.458621
    H  -1.556802  -2.424974  -0.256414
    H  -2.432041   0.037851  -1.671232
    H   0.131394   1.576920  -2.497367
    H   0.072368  -1.486845  -2.647123
    C  -0.509092   1.435605   1.136586
    C   0.800083  -1.464331  -0.281933
