26
B11C2H13
    B   0.000000   1.404871   1.281035
    B  -1.380154  -0.014991   0.840252
    B   0.000000  -1.384924   1.277161
    B   1.380154  -0.014991   0.840252
    B  -0.878332   1.519385  -0.275834
    B  -1.419702   0.015682  -0.962512
    B   0.878332   1.519385  -0.275834
    B  -0.880522  -1.500361  -0.261568
    B   0.880522  -1.500361  -0.261568
    B   1.419702   0.015682  -0.962512
    B   0.000000   0.895089  -1.636028
    H   0.000000   0.000751   2.983133
    H   0.000000  -2.325105   1.994136
    H   2.419184  -0.028687   1.400051
    H   0.000000   2.343492   2.000220
    H  -2.419184  -0.028687   1.400051
    H  -1.551880   2.489884  -0.328875
    H   1.551880   2.489884  -0.328875
    H   2.431600  -0.069420  -1.563105
    H   1.500721  -2.486885  -0.445341
    H  -1.500721  -2.486885  -0.445341
    H  -2.431600  -0.069420  -1.563105
    H   0.000000   1.335654  -2.729695
    H   0.000000  -1.326413  -2.435720
    C   0.000000   0.014207   1.900638
    C   0.000000  -0.806837  -1.488028
