26
B11C2H13
    B   0.000000   0.056319   2.072261
    B  -1.376056  -0.050891   0.812972
    B   0.000000  -1.363521   1.262578
    B   1.376056  -0.050891   0.812972
    B  -0.890520   1.486266  -0.236810
    B  -1.429046  -0.002033  -0.969001
    B   0.890520   1.486266  -0.236810
    B  -0.872247  -1.509232  -0.274672
    B   0.872247  -1.509232  -0.274672
    B   1.429046  -0.002033  -0.969001
    B   0.000000   0.892779  -1.603495
    H   0.000000   0.134464   3.249740
    H   0.000000  -2.335907   1.937117
    H   2.415193   0.023168   1.367824
    H   0.000000   2.234662   1.728757
    H  -2.415193   0.023168   1.367824
    H  -1.528935   2.477883  -0.275321
    H   1.528935   2.477883  -0.275321
    H   2.423974  -0.040412  -1.599634
    H   1.498791  -2.492292  -0.451950
    H  -1.498791  -2.492292  -0.451950
    H  -2.423974  -0.040412  -1.599634
    H   0.000000   1.398655  -2.667685
    H   0.000000  -1.298095  -2.456678
    C   0.000000  -0.798672  -1.498495
    C   0.000000   1.294400   1.182072
