26
B11C2H13
    B   0.024047   0.000000   2.101652
    B   0.011021   1.383600   1.267027
    B  -1.350647   0.000000   0.840122
    B   0.011021  -1.383600   1.267027
    B   1.335962   0.000000   0.861895
    B  -0.875245   1.488384  -0.267698
    B  -1.424305   0.000000  -0.988488
    B  -0.875245  -1.488384  -0.267698
    B   1.396760   0.000000  -0.969824
    B   0.003792   0.880373  -1.638128
    B   0.003792  -0.880373  -1.638128
    H   0.024542   0.000000   3.282558
    H   0.037822  -2.412902   1.853358
    H   2.422984   0.000000   1.321099
    H   0.037822   2.412902   1.853358
    H  -2.416881   0.000000   1.351622
    H  -1.491079   2.491599  -0.352004
    H   1.442445   2.268753  -0.343534
    H   2.451127   0.000000  -1.496581
    H   1.442445  -2.268753  -0.343534
    H  -1.491079  -2.491599  -0.352004
    H  -2.466790   0.000000  -1.544269
    H   0.048740   1.465927  -2.660863
    H   0.048740  -1.465927  -2.660863
    C   0.824104  -1.404217  -0.261557
    C   0.824104   1.404217  -0.261557
