26
B11C2H13
    B   0.000000   0.172007   2.059073
    B  -1.412843  -0.156886   0.783646
    B   0.000000  -1.296461   1.230615
    B   1.412843  -0.156886   0.783646
    B  -0.899560   1.468407  -0.189167
    B  -1.433604  -0.012522  -0.969203
    B   0.899560   1.468407  -0.189167
    B  -0.878048  -1.539113  -0.281264
    B   0.878048  -1.539113  -0.281264
    B   1.433604  -0.012522  -0.969203
    B   0.000000   0.903869  -1.577702
    H   0.000000   0.127776   3.239684
    H   0.000000  -2.204536   1.989255
    H   2.426440  -0.084718   1.384870
    H   0.000000   2.393335   1.724210
    H  -2.426440  -0.084718   1.384870
    H  -1.550708   2.452385  -0.266063
    H   1.550708   2.452385  -0.266063
    H   2.408366  -0.019913  -1.632785
    H   1.480191  -2.531077  -0.491138
    H  -1.480191  -2.531077  -0.491138
    H  -2.408366  -0.019913  -1.632785
    H   0.000000   1.400496  -2.646803
    H   0.000000  -1.280888  -2.469856
    C   0.000000  -0.790624  -1.507013
    C   0.000000   1.421897   1.233730
