26
B11C2H13
    B   0.083731   0.176977   2.061533
    B  -1.393594  -0.050376   0.784566
    B   0.174652  -1.298602   1.229256
    B   1.433923  -0.259532   0.716377
    B  -0.903976   1.525216  -0.259015
    B  -1.443079   0.013946  -1.025693
    B   0.912382   1.418438  -0.120724
    B  -0.939003  -1.442018  -0.240080
    B   1.440788   0.006942  -1.002378
    B   0.015736   0.913093  -1.605647
    B  -0.012490  -0.840301  -1.663519
    H   0.081929   0.129358   3.241940
    H   0.276577  -2.261123   1.907935
    H   2.480991  -0.322838   1.266584
    H  -0.529776   2.303693   1.710700
    H  -2.347550   0.048185   1.474779
    H  -1.465554   2.559955  -0.372525
    H   1.609652   2.370625  -0.038066
    H   2.477404  -0.069540  -1.559709
    H   1.315451  -2.358961  -0.458822
    H  -1.457033  -2.501997  -0.217452
    H  -2.475494   0.057560  -1.602000
    H   0.010860   1.498848  -2.632842
    H   0.120999  -1.561250  -2.588608
    C  -0.265464   1.374150   1.211996
    C   0.797937  -1.430448  -0.265601
