26
B11C2H13
    B   0.346102   0.375976   1.813915
    B  -1.357974  -0.062827   0.874644
    B   0.084791  -1.274303   1.206066
    B   1.540450  -0.394819   0.748021
    B  -1.035207   1.569196  -0.295783
    B  -1.405673   0.001974  -1.086104
    B   0.921091   1.318158   0.154266
    B  -0.925514  -1.428056  -0.221035
    B   1.423547  -0.010569  -0.959943
    B   0.045886   0.879522  -1.541679
    B  -0.007398  -0.850591  -1.658970
    H   0.619374   0.514403   2.955822
    H   0.113934  -2.143440   2.003355
    H   2.590940  -0.644568   1.223279
    H  -0.800550   2.251213   1.789498
    H  -2.360512  -0.165498   1.489148
    H  -1.692619   2.510575  -0.578211
    H   1.636901   2.253671   0.230031
    H   2.462441   0.006277  -1.518638
    H   1.306964  -2.401631  -0.456612
    H  -1.557737  -2.423571  -0.253706
    H  -2.428669   0.041567  -1.678000
    H   0.134123   1.588058  -2.484505
    H   0.065928  -1.486411  -2.649265
    C  -0.517333   1.440517   1.130044
    C   0.796714  -1.464824  -0.282650
