26
B11C2H13
    B   0.000000   1.398246   1.280814
    B  -1.379948  -0.001991   0.838570
    B   0.000000  -1.390546   1.281616
    B   1.379948  -0.001991   0.838570
    B  -0.879688   1.517488  -0.273194
    B  -1.423114   0.014908  -0.966702
    B   0.879688   1.517488  -0.273194
    B  -0.880280  -1.498072  -0.261353
    B   0.880280  -1.498072  -0.261353
    B   1.423114   0.014908  -0.966702
    B   0.000000   0.894321  -1.634240
    H   0.000000   0.000851   2.986854
    H   0.000000  -2.337098   1.990411
    H   2.418977  -0.020047   1.398782
    H   0.000000   2.335419   2.001813
    H  -2.418977  -0.020047   1.398782
    H  -1.548640   2.490886  -0.333160
    H   1.548640   2.490886  -0.333160
    H   2.434562  -0.072677  -1.567411
    H   1.496268  -2.488170  -0.441426
    H  -1.496268  -2.488170  -0.441426
    H  -2.434562  -0.072677  -1.567411
    H   0.000000   1.338302  -2.726710
    H   0.000000  -1.325532  -2.433239
    C   0.000000   0.005547   1.903844
    C   0.000000  -0.804160  -1.486386
