26
B11C2H13
    B   0.284392   0.333838   1.870679
    B  -1.381314  -0.015735   0.844073
    B   0.135168  -1.283459   1.211400
    B   1.537737  -0.395515   0.731942
    B  -0.968502   1.563721  -0.288514
    B  -1.411800   0.000004  -1.070715
    B   0.873932   1.354671   0.078819
    B  -0.910528  -1.424685  -0.207887
    B   1.419708  -0.003899  -0.950881
    B   0.036445   0.887657  -1.561415
    B  -0.009137  -0.848481  -1.651366
    H   0.512656   0.409398   3.028573
    H   0.181074  -2.154488   2.005777
    H   2.594807  -0.591119   1.217235
    H  -0.769068   2.277238   1.772531
    H  -2.392096  -0.162543   1.434248
    H  -1.590357   2.535480  -0.545554
    H   1.612239   2.269476   0.184786
    H   2.463110   0.012370  -1.501645
    H   1.296793  -2.405417  -0.465939
    H  -1.546861  -2.417849  -0.224751
    H  -2.440219   0.018408  -1.652622
    H   0.105347   1.547991  -2.538775
    H   0.048567  -1.472068  -2.649997
    C  -0.475129   1.430795   1.164702
    C   0.793034  -1.465790  -0.281717
