26
B11C2H13
    B   0.244825   0.280471   1.928995
    B  -1.376638   0.024685   0.843265
    B   0.130510  -1.293842   1.225982
    B   1.546843  -0.347538   0.724734
    B  -0.935810   1.551118  -0.276010
    B  -1.409448  -0.002435  -1.051796
    B   0.880921   1.381864   0.019510
    B  -0.907072  -1.425312  -0.209347
    B   1.428820   0.002242  -0.960035
    B   0.035152   0.886213  -1.571420
    B  -0.010758  -0.849571  -1.644734
    H   0.410317   0.292161   3.099148
    H   0.159223  -2.187534   1.994674
    H   2.612216  -0.502446   1.208197
    H  -0.746078   2.268506   1.763127
    H  -2.399583  -0.098693   1.418486
    H  -1.547474   2.529927  -0.528164
    H   1.606879   2.308057   0.103066
    H   2.470178   0.012917  -1.513838
    H   1.311591  -2.406126  -0.455885
    H  -1.541604  -2.419291  -0.231249
    H  -2.438419   0.010235  -1.632037
    H   0.073554   1.520636  -2.566788
    H   0.033278  -1.472619  -2.644536
    C  -0.432474   1.408437   1.187516
    C   0.801053  -1.472061  -0.277874
