26
B11C2H13
    B   0.000000   0.168837   2.060890
    B  -1.411069  -0.152802   0.784775
    B   0.000000  -1.297812   1.232333
    B   1.411069  -0.152802   0.784775
    B  -0.898833   1.469267  -0.191653
    B  -1.433536  -0.012017  -0.969387
    B   0.898833   1.469267  -0.191653
    B  -0.877552  -1.536801  -0.281167
    B   0.877552  -1.536801  -0.281167
    B   1.433536  -0.012017  -0.969387
    B   0.000000   0.902871  -1.578433
    H   0.000000   0.125811   3.241316
    H   0.000000  -2.208737   1.987466
    H   2.425737  -0.082065   1.384404
    H   0.000000   2.388635   1.722454
    H  -2.425737  -0.082065   1.384404
    H  -1.549353   2.453784  -0.265723
    H   1.549353   2.453784  -0.265723
    H   2.409701  -0.021467  -1.630825
    H   1.479480  -2.529027  -0.490710
    H  -1.479480  -2.529027  -0.490710
    H  -2.409701  -0.021467  -1.630825
    H   0.000000   1.399601  -2.647541
    H   0.000000  -1.282729  -2.469733
    C   0.000000  -0.791330  -1.507499
    C   0.000000   1.417108   1.232306
