26
B11C2H13
    B  -0.268841   0.342045   1.773250
    B   0.685351   1.567145   1.154510
    B  -1.536488  -0.395031   0.744538
    B  -0.125586  -1.334737   1.240611
    B   1.273995  -0.252817   1.091880
    B  -0.924376   1.274787   0.163410
    B  -1.463046  -0.055729  -0.967248
    B  -0.860688  -1.626600  -0.333323
    B   0.926056  -1.427482  -0.198163
    B  -0.110165   0.910398  -1.533087
    B   0.007033  -0.827617  -1.634504
    H  -0.502578   0.534030   2.917678
    H  -0.119938  -2.181161   2.066485
    H   2.391246  -0.229211   1.473654
    H   1.026928   2.476554   1.824743
    H  -2.590834  -0.463770   1.276186
    H  -1.549805   2.275239   0.215047
    H   1.379323   2.351420  -0.841370
    H   2.213333   0.096315  -1.429300
    H   1.738371  -2.262634  -0.391732
    H  -1.395042  -2.655104  -0.561081
    H  -2.453305   0.058558  -1.602984
    H  -0.047592   1.534685  -2.531790
    H   0.168305  -1.289199  -2.707889
    C   1.268208   0.053056  -0.904189
    C   0.870132   1.526859  -0.352344
