26
B11C2H13
    B   0.006414   0.020396   2.092751
    B  -1.358209   0.001290   0.833900
    B   0.006456  -1.376072   1.268050
    B   1.361987  -0.001512   0.836291
    B  -0.879903   1.493991  -0.258967
    B  -1.427625  -0.005104  -0.985410
    B   0.882001   1.490631  -0.254202
    B  -0.877249  -1.498590  -0.270075
    B   1.424584  -0.006717  -0.979876
    B   0.001703   0.885427  -1.639236
    B  -0.000037  -0.886850  -1.644539
    H   0.006695   0.031315   3.282036
    H   0.014017  -2.391501   1.893166
    H   2.435932  -0.005086   1.345795
    H  -0.004852   2.321736   1.852999
    H  -2.429430   0.004672   1.350418
    H  -1.541210   2.480108  -0.332393
    H   1.550733   2.471682  -0.325022
    H   2.481966  -0.017531  -1.522809
    H   1.487147  -2.396742  -0.345267
    H  -1.529592  -2.489776  -0.347344
    H  -2.483552  -0.008523  -1.532785
    H   0.006255   1.462848  -2.678379
    H   0.010317  -1.467712  -2.681035
    C  -0.001950   1.358000   1.262998
    C   0.857399  -1.470380  -0.268078
