26
B11C2H13
    B   0.012167   0.000000   2.105827
    B   0.004685   1.387434   1.276379
    B  -1.355163   0.000000   0.839963
    B   0.004685  -1.387434   1.276379
    B   1.353974   0.000000   0.848218
    B  -0.876662   1.496127  -0.268492
    B  -1.424191   0.000000  -0.989449
    B  -0.876662  -1.496127  -0.268492
    B   1.415713   0.000000  -0.981741
    B   0.002688   0.884166  -1.644599
    B   0.002688  -0.884166  -1.644599
    H   0.014749   0.000000   3.295891
    H   0.013220  -2.412429   1.890072
    H   2.435601   0.000000   1.341117
    H   0.013220   2.412429   1.890072
    H  -2.431417   0.000000   1.348319
    H  -1.528250   2.486838  -0.353726
    H   1.498608   2.382607  -0.345173
    H   2.471473   0.000000  -1.525272
    H   1.498608  -2.382607  -0.345173
    H  -1.528250  -2.486838  -0.353726
    H  -2.476576   0.000000  -1.543098
    H   0.018037   1.461256  -2.682947
    H   0.018037  -1.461256  -2.682947
    C   0.859509  -1.462658  -0.264908
    C   0.859509   1.462658  -0.264908
