26
B11C2H13
    B   0.000000   0.016054   2.092202
    B  -1.361821   0.000731   0.833400
    B   0.000000  -1.381741   1.271666
    B   1.361821   0.000731   0.833400
    B  -0.879943   1.493709  -0.261266
    B  -1.426842  -0.001185  -0.981617
    B   0.879943   1.493709  -0.261266
    B  -0.878277  -1.496729  -0.270740
    B   0.878277  -1.496729  -0.270740
    B   1.426842  -0.001185  -0.981617
    B   0.000000   0.885551  -1.636861
    H   0.000000   0.029312   3.281727
    H   0.000000  -2.395840   1.900446
    H   2.436929   0.009196   1.341708
    H   0.000000   2.320430   1.843545
    H  -2.436929   0.009196   1.341708
    H  -1.542111   2.478083  -0.340471
    H   1.542111   2.478083  -0.340471
    H   2.476508  -0.005928  -1.538314
    H   1.540941  -2.479494  -0.364763
    H  -1.540941  -2.479494  -0.364763
    H  -2.476508  -0.005928  -1.538314
    H   0.000000   1.454675  -2.679239
    H   0.000000  -1.409599  -2.598621
    C   0.000000  -0.870868  -1.615963
    C   0.000000   1.355261   1.258211
