26
B11C2H13
    B   0.345432   0.375126   1.812371
    B  -1.357259  -0.062549   0.874920
    B   0.085177  -1.274631   1.206219
    B   1.540511  -0.394903   0.748151
    B  -1.037561   1.568651  -0.295815
    B  -1.405590   0.002323  -1.086374
    B   0.922822   1.317168   0.155158
    B  -0.925545  -1.427858  -0.220807
    B   1.423288  -0.009871  -0.960052
    B   0.046285   0.879469  -1.542275
    B  -0.007093  -0.851015  -1.659168
    H   0.619162   0.515703   2.953964
    H   0.114064  -2.144054   2.003140
    H   2.590903  -0.644681   1.223508
    H  -0.799628   2.251286   1.788841
    H  -2.359753  -0.165326   1.489508
    H  -1.695268   2.510051  -0.577470
    H   1.637741   2.253226   0.232148
    H   2.462576   0.006783  -1.518030
    H   1.306865  -2.401704  -0.456641
    H  -1.558505  -2.422898  -0.252694
    H  -2.428698   0.041921  -1.678069
    H   0.134785   1.589083  -2.484199
    H   0.066147  -1.487393  -2.649075
    C  -0.517250   1.441089   1.128646
    C   0.796390  -1.464998  -0.282921
