28
B12C2H14
    B  -1.498076  -0.574045  -1.139631
    B  -1.524822   1.142374  -0.625606
    B  -1.498154   0.650910   1.097425
    B   1.498163  -0.574168  -1.139425
    B   1.524993   1.142253  -0.625402
    B   1.498101   0.650808   1.097621
    B   0.000101   0.402616  -1.385617
    B  -0.000035  -1.372658  -0.416253
    B  -0.000097  -0.388703   1.380685
    B   0.000038   1.384266   0.407120
    B   2.576984  -0.007574   0.004267
    B  -2.576980  -0.007361   0.003935
    H  -3.734334  -0.188201   0.102904
    H  -1.900414   2.124202  -1.163227
    H  -1.882182   1.012020   2.153447
    H  -1.789230  -1.892425   1.036143
    H  -1.882051  -1.269254  -2.012734
    H   0.000204   0.720030  -2.533290
    H  -0.000196  -0.739563   2.511404
    H   0.000037   2.522182   0.757922
    H  -0.000048  -2.514317  -0.729687
    H   1.882210  -1.269402  -2.012477
    H   1.900742   2.124040  -1.162990
    H   1.881981   1.011887   2.153707
    H   1.788938  -1.892563   1.036376
    H   3.734309  -0.188537   0.103343
    C   1.405513  -1.004622   0.550172
    C  -1.405669  -1.004518   0.549976
