28
B12C2H14
    B   0.112546   0.000000   1.600129
    B   1.528546   0.874853   0.762788
    B  -0.008452   1.705676   0.784720
    B   1.528546  -0.874853   0.762788
    B  -0.008452  -1.705676   0.784720
    B   0.870332   1.507732  -0.753011
    B   1.756525   0.000000  -0.747751
    B   0.870332  -1.507732  -0.753011
    B  -0.848830  -1.499054  -0.774472
    B  -0.848830   1.499054  -0.774472
    B  -1.732880   0.000000  -0.793839
    B   0.009455   0.000000  -1.592183
    H  -2.839647   0.000000  -1.195946
    H  -1.482303   2.370746  -1.255416
    H   1.347704   2.412357  -1.346132
    H   2.772497   0.000000  -1.352015
    H   1.347704  -2.412357  -1.346132
    H  -1.482303  -2.370746  -1.255416
    H  -0.017109   0.000000  -2.773751
    H  -2.229885   1.192757   1.201121
    H  -0.151601   2.702964   1.399793
    H   2.384931   1.423223   1.366061
    H   2.384931  -1.423223   1.366061
    H  -0.151601  -2.702964   1.399793
    H  -2.229885  -1.192757   1.201121
    H  -0.118039   0.000000   2.755338
    C  -1.382115   0.790943   0.664558
    C  -1.382115  -0.790943   0.664558
