28
B12C2H14
    B   1.509668   0.870883   0.750792
    B   0.000000   1.740973   0.751478
    B  -1.509668   0.870883   0.750792
    B  -1.509668  -0.870883   0.750792
    B   1.509668  -0.870883   0.750792
    B   0.000000  -1.740973   0.751478
    B   0.870883   1.509668  -0.750792
    B   1.740973   0.000000  -0.751478
    B   0.870883  -1.509668  -0.750792
    B  -0.870883  -1.509668  -0.750792
    B  -0.870883   1.509668  -0.750792
    B  -1.740973   0.000000  -0.751478
    H  -2.770736   0.000000  -1.353048
    H  -1.384998   2.400090  -1.344384
    H   1.384998   2.400090  -1.344384
    H   2.770736   0.000000  -1.353048
    H   1.384998  -2.400090  -1.344384
    H  -1.384998  -2.400090  -1.344384
    H   0.000000   0.000000  -2.718924
    H  -2.400090   1.384998   1.344384
    H   0.000000   2.770736   1.353048
    H   2.400090   1.384998   1.344384
    H   2.400090  -1.384998   1.344384
    H   0.000000  -2.770736   1.353048
    H  -2.400090  -1.384998   1.344384
    H   0.000000   0.000000   2.718924
    C   0.000000   0.000000  -1.641903
    C   0.000000   0.000000   1.641903
