28
B12C2H14
    B   0.031317  -0.005414   1.586286
    B   1.514519   0.863608   0.768434
    B  -0.007138   1.726307   0.762053
    B  -1.473759  -0.840763   0.782341
    B   1.532074  -0.880366   0.741779
    B   0.014893  -1.727968   0.780666
    B   0.886623   1.528465  -0.741764
    B   1.743424   0.009361  -0.768447
    B   0.857011  -1.498603  -0.762014
    B  -0.851081   1.503920  -0.780662
    B  -1.696663  -0.008761  -0.782374
    B   0.024424   0.020341  -1.586284
    H  -2.758565  -0.058140  -1.287967
    H  -1.477630   2.368440  -1.282003
    H   1.366019   2.432258  -1.334690
    H   2.756233  -0.011724  -1.378023
    H   1.247860  -2.430682  -1.371618
    H  -1.293822  -2.195777  -1.180803
    H  -0.057833  -0.080164  -2.759030
    H  -2.218397   1.254665   1.180775
    H  -0.134638   2.728917   1.371697
    H   2.381123   1.388267   1.377976
    H   2.399155  -1.423331   1.334722
    H  -0.095472  -2.789911   1.282061
    H  -2.418131  -1.328926   1.287868
    H  -0.090183   0.040486   2.759032
    C  -1.382974   0.798573   0.664009
    C  -0.798388  -1.383078  -0.664021
