28
B12C2H14
    B   1.510081   0.869849   0.741982
    B   0.000000   1.734267   0.747877
    B  -1.510081   0.869849   0.741982
    B  -1.510081  -0.869849   0.741982
    B   1.510081  -0.869849   0.741982
    B   0.000000  -1.734267   0.747877
    B   0.869849   1.510081  -0.741982
    B   1.734267   0.000000  -0.747877
    B   0.869849  -1.510081  -0.741982
    B  -0.869849  -1.510081  -0.741982
    B  -0.869849   1.510081  -0.741982
    B  -1.734267   0.000000  -0.747877
    H  -2.708473   0.000000  -1.415140
    H  -1.362689   2.364687  -1.392517
    H   1.362689   2.364687  -1.392517
    H   2.708473   0.000000  -1.415140
    H   1.362689  -2.364687  -1.392517
    H  -1.362689  -2.364687  -1.392517
    H   0.000000   0.000000  -2.515100
    H  -2.364687   1.362689   1.392517
    H   0.000000   2.708473   1.415140
    H   2.364687   1.362689   1.392517
    H   2.364687  -1.362689   1.392517
    H   0.000000  -2.708473   1.415140
    H  -2.364687  -1.362689   1.392517
    H   0.000000   0.000000   2.515100
    C   0.000000   0.000000  -1.434546
    C   0.000000   0.000000   1.434546
