28
B12C2H14
    B   1.506503   0.866837   0.732051
    B   0.000000   1.732231   0.735885
    B  -1.506503   0.866837   0.732051
    B  -1.506503  -0.866837   0.732051
    B   1.506503  -0.866837   0.732051
    B   0.000000  -1.732231   0.735885
    B   0.866837   1.506503  -0.732051
    B   1.732231   0.000000  -0.735885
    B   0.866837  -1.506503  -0.732051
    B  -0.866837  -1.506503  -0.732051
    B  -0.866837   1.506503  -0.732051
    B  -1.732231   0.000000  -0.735885
    H  -2.733021   0.000000  -1.355397
    H  -1.365068   2.369462  -1.326632
    H   1.365068   2.369462  -1.326632
    H   2.733021   0.000000  -1.355397
    H   1.365068  -2.369462  -1.326632
    H  -1.365068  -2.369462  -1.326632
    H   0.000000   0.000000  -2.602817
    H  -2.369462   1.365068   1.326632
    H   0.000000   2.733021   1.355397
    H   2.369462   1.365068   1.326632
    H   2.369462  -1.365068   1.326632
    H   0.000000  -2.733021   1.355397
    H  -2.369462  -1.365068   1.326632
    H   0.000000   0.000000   2.602817
    C   0.000000   0.000000  -1.511753
    C   0.000000   0.000000   1.511753
