28
B12C2H14
    B  -1.502986  -0.615589  -1.121200
    B  -1.509331   1.116541  -0.612009
    B  -1.503291   0.614158   1.121993
    B   1.516287  -0.613615  -1.119149
    B   1.511930  -1.120522   0.614048
    B   1.515655   1.119050  -0.613022
    B   1.516968   0.613113   1.119472
    B   0.006178   0.401919  -1.386083
    B   0.002917  -1.383705  -0.407182
    B   0.002683  -0.402361   1.384650
    B   0.005904   1.383891   0.408710
    B  -2.595608  -0.005142   0.002700
    H  -3.778781  -0.020398   0.010901
    H  -1.892855   2.103596  -1.151950
    H  -1.881603   1.139681   2.118857
    H  -1.852731  -2.034580   1.114039
    H  -1.881326  -1.171137  -2.101663
    H   0.002444   0.733370  -2.535614
    H  -0.005696  -0.740362   2.531347
    H   0.002083   2.530887   0.748812
    H  -0.004507  -2.532124  -0.739268
    H   1.899367  -1.157014  -2.104068
    H   1.899418   2.105769  -1.152829
    H   1.899201   1.149621   2.108494
    H   1.893694  -2.108554   1.153944
    H   3.674932  -0.006533   0.003183
    C   2.557497  -0.002070   0.001254
    C  -1.498419  -1.098216   0.601746
