28
B12C2H14
    B  -1.495922  -0.618254  -1.129128
    B  -1.496287  -1.128970   0.618185
    B  -1.495941   1.129020  -0.618568
    B  -1.496101   0.618561   1.128832
    B   1.495984  -0.618307  -1.128929
    B   1.496022  -1.129020   0.618447
    B   1.496023   1.128996  -0.618253
    B   1.496228   0.618347   1.129125
    B   0.000101   0.410722  -1.402386
    B  -0.000062  -1.402475  -0.410340
    B  -0.000077  -0.410919   1.402120
    B   0.000025   1.402112   0.410992
    H  -3.492098   0.000189  -0.000260
    H  -1.942131   2.087080  -1.143263
    H  -1.942580   1.143028   2.086882
    H  -1.942955  -2.086900   1.142717
    H  -1.942334  -1.142764  -2.087191
    H   0.000190   0.744322  -2.546133
    H  -0.000306  -0.744412   2.545889
    H   0.000085   2.545825   0.744732
    H   0.000023  -2.546322  -0.743549
    H   1.942551  -1.142957  -2.086844
    H   1.942426   2.086974  -1.142921
    H   1.942335   1.142981   2.087248
    H   1.942737  -2.087026   1.142807
    H   3.492096  -0.000266  -0.000011
    C   2.414157  -0.000025   0.000090
    C  -2.414162   0.000137  -0.000178
