28
B12C2H14
    B  -1.486874  -0.600759  -1.112779
    B  -1.486793  -1.104966   0.614094
    B  -1.393865   1.153046  -0.605223
    B  -1.394433   0.645287   1.131007
    B   1.520830  -0.603673  -1.116496
    B   1.520456  -1.109935   0.615462
    B   1.386545   1.142016  -0.643086
    B   1.386612   0.615315   1.157268
    B   0.001532   0.191846  -1.533273
    B   0.003363  -1.442774  -0.422236
    B   0.001247  -0.662559   1.394663
    B  -2.544707   0.078580   0.022613
    H  -3.720895   0.103368   0.029751
    H  -1.682096   2.190088  -1.097510
    H  -1.683205   1.254034   2.104109
    H  -1.985266  -2.026894   1.168870
    H  -1.985782  -1.079038  -2.076411
    H  -0.016716   0.562074  -2.665035
    H  -0.017103  -0.960569   2.547550
    H   0.011733   2.388562   0.699828
    H   0.006596  -2.581825  -0.755347
    H   2.080657  -1.082137  -2.039974
    H   1.778621   2.152625  -1.108264
    H   1.779001   1.215861   2.093630
    H   2.079723  -2.010465   1.136416
    H   3.453309   0.133917   0.039350
    C   2.379206   0.095924   0.028126
    C   0.008325   1.342729   0.393008
