28
B12C2H14
    B   0.000000   0.000000   1.576619
    B   1.483607   0.833346   0.775736
    B  -0.020388   1.701384   0.776144
    B  -1.483607  -0.833346   0.775736
    B   0.020388  -1.701384   0.776144
    B   0.867083   1.502167  -0.749005
    B   1.733599   0.007558  -0.768540
    B   0.859842  -1.505034  -0.768065
    B  -0.867083  -1.502167  -0.749005
    B  -0.859842   1.505034  -0.768065
    B  -1.733599  -0.007558  -0.768540
    B   0.000000   0.000000  -1.590855
    H  -2.796352   0.036231  -1.277448
    H  -1.428949   2.403853  -1.276736
    H   1.385103   2.399281  -1.317451
    H   2.796352  -0.036231  -1.277448
    H   1.428949  -2.403853  -1.276736
    H  -1.385103  -2.399281  -1.317451
    H   0.000000   0.000000  -2.772266
    H  -2.235214   1.290397   1.177577
    H  -0.079106   2.704937   1.394150
    H   2.382156   1.284260   1.393627
    H   2.235214  -1.290397   1.177577
    H   0.079106  -2.704937   1.394150
    H  -2.382156  -1.284260   1.393627
    H   0.000000   0.000000   2.753509
    C  -1.414335   0.816303   0.656508
    C   1.414335  -0.816303   0.656508
