28
B12C2H14
    B  -1.506423  -0.607248  -1.118857
    B  -1.519322   1.107870  -0.610235
    B  -1.490205   0.608031   1.119574
    B   1.519244  -0.604313  -1.111205
    B   1.489871  -1.115292   0.615396
    B   1.506722   1.114946  -0.614673
    B   0.000269   0.402755  -1.374112
    B  -0.010506  -1.365422  -0.397233
    B  -0.000520  -0.397775   1.356015
    B   0.010568   1.363696   0.402496
    B   2.592193   0.000321   0.014277
    B  -2.592155  -0.007965   0.011819
    H  -3.767022  -0.045568   0.051431
    H  -1.902939   2.094062  -1.136453
    H  -1.868084   1.096163   2.127372
    H  -1.826491  -1.943908   1.065948
    H  -1.890219  -1.188887  -2.072360
    H   0.000410   0.734663  -2.515701
    H  -0.000846  -0.728604   2.495044
    H   0.018663   2.498063   0.754304
    H  -0.018507  -2.511782  -0.707676
    H   1.903422  -1.152429  -2.085215
    H   1.890640   2.118352  -1.105128
    H   1.825875   1.063473   1.945455
    H   1.868178  -2.069278   1.201524
    H   3.767063   0.009981   0.067905
    C   1.494303   0.579471   1.049138
    C  -1.494157  -1.053700   0.571262
