28
B12C2H14
    B   0.024719  -0.004664   1.584083
    B   1.509032   0.864081   0.764465
    B  -0.002248   1.721203   0.766265
    B  -1.494135  -0.851027   0.757819
    B   1.523214  -0.867828   0.758609
    B  -0.001720  -1.720102   0.785919
    B   0.864081   1.509032  -0.764465
    B   1.721203  -0.002248  -0.766265
    B  -0.851027  -1.494135  -0.757819
    B  -0.867828   1.523214  -0.758609
    B  -1.720102  -0.001720  -0.785919
    B  -0.004664   0.024719  -1.584083
    H  -2.785526   0.035660  -1.289265
    H  -1.467974   2.409385  -1.253830
    H   1.376946   2.393897  -1.357138
    H   2.724529  -0.103596  -1.379282
    H   1.262750  -2.212303  -1.190013
    H  -1.289356  -2.413708  -1.353028
    H   0.039660  -0.080073  -2.757805
    H  -2.212303   1.262750   1.190013
    H  -0.103596   2.724529   1.379282
    H   2.393897   1.376946   1.357138
    H   2.409385  -1.467974   1.253830
    H   0.035660  -2.785526   1.289265
    H  -2.413708  -1.289356   1.353028
    H  -0.080073   0.039660   2.757805
    C  -1.389239   0.798423   0.661507
    C   0.798423  -1.389239  -0.661507
