28
B12C2H14
    B   0.038775   0.022398   1.565367
    B   1.501649   0.866987   0.780462
    B  -0.000881   1.743048   0.754083
    B  -1.475833  -0.852074   0.756039
    B   1.509048  -0.872271   0.754119
    B   0.877238   1.510230  -0.755090
    B   1.746538   0.004580  -0.755074
    B   0.872756  -1.493908  -0.767821
    B  -0.868410  -1.494201  -0.774905
    B  -0.857383   1.502769  -0.767844
    B  -1.728234  -0.004971  -0.774903
    B   0.005431   0.003114  -1.594201
    H  -2.804697   0.046716  -1.254043
    H  -1.473222   2.384134  -1.253125
    H   1.372396   2.407181  -1.345086
    H   2.770910  -0.015081  -1.345050
    H   1.328136  -2.467924  -1.253086
    H  -1.361880  -2.452292  -1.254039
    H  -0.008437  -0.004898  -2.775798
    H  -2.197965   1.248219   1.219549
    H  -0.122113   2.741046   1.372159
    H   2.378750   1.373377   1.390329
    H   2.312719  -1.476239   1.372222
    H  -0.017995  -2.527602   1.219551
    H  -2.335262  -1.348252   1.390195
    H  -0.083308  -0.048075   2.734591
    C  -1.377464   0.793838   0.680695
    C  -0.001261  -1.589848   0.680703
