28
B12C2H14
    B  -1.472283  -0.601845  -1.105534
    B  -1.550648   1.119519  -0.618874
    B  -1.460052   0.697710   1.122034
    B   1.512118  -0.621363  -1.104518
    B   1.381417  -1.129153   0.629071
    B   1.540216   1.110542  -0.613612
    B   1.492508   0.620379   1.126641
    B   0.011482   0.433512  -1.411661
    B   0.030953  -1.423870  -0.709781
    B   0.005147   1.402277   0.309554
    B   2.575975  -0.048588   0.065133
    B  -2.535875  -0.046881   0.075036
    H  -3.688701  -0.238461   0.200616
    H  -1.978600   2.083158  -1.149664
    H  -1.832100   1.067824   2.178630
    H  -1.569392  -1.915247   1.086890
    H  -1.986907  -1.288389  -1.918484
    H  -0.015148   0.831735  -2.529335
    H  -0.067067  -0.442077   2.371806
    H   0.003345   2.492865   0.790943
    H  -0.060164  -2.563725  -1.018299
    H   1.932204  -1.231829  -2.031685
    H   1.952035   2.086205  -1.139773
    H   1.758740   1.084810   2.181294
    H   1.596609  -2.122868   1.234830
    H   3.751387  -0.086574   0.117328
    C  -0.012916  -0.264375   1.301826
    C  -1.314258  -1.005614   0.559696
