28
B12C2H14
    B   1.476178   0.767767   0.822293
    B  -0.236988   1.465635   0.891493
    B  -1.387781  -0.527616   0.891444
    B   1.670159  -0.964263   0.676037
    B   0.073189  -1.662297   0.822303
    B   0.804660   1.444907  -0.714347
    B   1.758556   0.027376  -0.766114
    B   0.855577  -1.536644  -0.766086
    B  -0.848991  -1.419319  -0.714361
    B  -0.876829   1.587422  -0.815738
    B  -1.813134  -0.034339  -0.815783
    B   0.044892  -0.025925  -1.591212
    H  -2.850810  -0.137066  -1.369441
    H  -1.306721   2.537452  -1.369361
    H   1.310325   2.380869  -1.232204
    H   2.773321   0.092160  -1.366886
    H   1.306860  -2.447855  -1.366846
    H  -1.406750  -2.325196  -1.232228
    H   0.027937  -0.016136  -2.773614
    H  -2.608375   1.505906   0.744308
    H  -0.215077   2.330127   1.695029
    H   2.185498   1.431328   1.492193
    H   2.560768  -1.478441   1.253087
    H  -0.146787  -2.608352   1.492232
    H  -2.125520  -0.978799   1.694982
    H   0.335980  -0.193975   2.619927
    C   0.365550  -0.211040   1.537820
    C  -1.725687   0.996315   0.389220
