28
B12C2H14
    B  -1.501488  -0.595069  -1.132800
    B  -1.524028   1.122286  -0.627484
    B  -1.471359   0.619379   1.117845
    B   1.524159  -0.607427  -1.133174
    B   1.471010  -1.123891   0.608336
    B   1.501701   1.111738  -0.633328
    B   0.000035   0.403971  -1.380881
    B  -0.016017  -1.365116  -0.394611
    B  -0.000349  -0.394770   1.348405
    B   0.016235   1.362491   0.403383
    B   2.583787  -0.012147   0.003903
    B  -2.583782   0.008086   0.009535
    H  -3.750950  -0.083177   0.105199
    H  -1.894041   2.117932  -1.143247
    H  -1.879856   1.030954   2.145336
    H  -1.799905  -1.902104   1.035690
    H  -1.904429  -1.236711  -2.035951
    H   0.000035   0.737695  -2.521858
    H  -0.000209  -0.726963   2.484465
    H   0.036516   2.488511   0.776488
    H  -0.036326  -2.514694  -0.687149
    H   1.894438  -1.169479  -2.103342
    H   1.904753   2.138351  -1.049682
    H   1.799480   1.045239   1.897088
    H   1.879717  -2.023537   1.253025
    H   3.750947   0.012845   0.133798
    C   1.471675   0.559176   0.989108
    C  -1.471725  -1.003891   0.532016
