28
B12C2H14
    B  -1.471509  -0.601810  -1.105201
    B  -1.549611   1.119113  -0.619002
    B  -1.460209   0.697411   1.122168
    B   1.511739  -0.621068  -1.104440
    B   1.381292  -1.129236   0.628837
    B   1.540245   1.110085  -0.613484
    B   1.492107   0.620487   1.126249
    B   0.011434   0.434166  -1.411691
    B   0.031121  -1.424443  -0.710332
    B   0.005476   1.403240   0.310117
    B   2.576100  -0.048655   0.064803
    B  -2.535943  -0.046642   0.074204
    H  -3.688745  -0.238421   0.199453
    H  -1.978782   2.082409  -1.149505
    H  -1.833058   1.067035   2.178612
    H  -1.569197  -1.914916   1.088122
    H  -1.986326  -1.288633  -1.917827
    H  -0.014613   0.831630  -2.529628
    H  -0.066742  -0.441894   2.372274
    H   0.003053   2.494365   0.789999
    H  -0.061086  -2.564026  -1.019380
    H   1.930846  -1.231318  -2.032242
    H   1.951183   2.086485  -1.139061
    H   1.759847   1.083743   2.181036
    H   1.597645  -2.122347   1.235136
    H   3.751415  -0.087455   0.117982
    C  -0.013103  -0.264279   1.302330
    C  -1.314552  -1.005349   0.560580
