28
B12C2H14
    B  -1.502589  -0.578208  -1.139065
    B  -1.526073   1.143714  -0.626456
    B  -1.502667   0.648335   1.100635
    B   1.502646  -0.578334  -1.138833
    B   1.526221   1.143610  -0.626206
    B   1.502696   0.648231   1.100868
    B   0.000094   0.401411  -1.386295
    B  -0.000052  -1.360346  -0.423322
    B  -0.000068  -0.376247   1.373987
    B   0.000066   1.384090   0.408625
    B   2.580160  -0.007641   0.004348
    B  -2.580154  -0.007449   0.004048
    H  -3.736984  -0.190597   0.104298
    H  -1.910880   2.122776  -1.162545
    H  -1.889512   1.009298   2.155501
    H  -1.772676  -1.895731   1.037813
    H  -1.889409  -1.272420  -2.011492
    H   0.000206   0.713110  -2.535307
    H  -0.000175  -0.735851   2.502420
    H   0.000031   2.520056   0.764981
    H  -0.000029  -2.504829  -0.727985
    H   1.889531  -1.272609  -2.011181
    H   1.911206   2.122601  -1.162302
    H   1.889250   1.009227   2.155825
    H   1.772406  -1.895820   1.038124
    H   3.736954  -0.190998   0.104639
    C   1.410603  -0.999886   0.547630
    C  -1.410779  -0.999816   0.547358
