28
B12C2H14
    B   0.039980   0.023106   1.566230
    B   1.502325   0.867369   0.780617
    B  -0.001339   1.743043   0.753796
    B  -1.474311  -0.851202   0.756376
    B   1.508775  -0.872661   0.753821
    B   0.878559   1.510899  -0.754814
    B   1.747781   0.005385  -0.754823
    B   0.873731  -1.494223  -0.769150
    B  -0.868210  -1.495268  -0.774274
    B  -0.857165   1.503775  -0.769178
    B  -1.729071  -0.004260  -0.774272
    B   0.005356   0.003059  -1.594729
    H  -2.806005   0.043321  -1.252939
    H  -1.473328   2.385036  -1.254329
    H   1.372834   2.408878  -1.344169
    H   2.772593  -0.015527  -1.344172
    H   1.328873  -2.468465  -1.254280
    H  -1.365471  -2.451727  -1.252915
    H  -0.010877  -0.006328  -2.776378
    H  -2.198651   1.247675   1.218473
    H  -0.123186   2.741086   1.371918
    H   2.377901   1.372856   1.393481
    H   2.312200  -1.477153   1.371975
    H  -0.018790  -2.527956   1.218470
    H  -2.333952  -1.347473   1.390367
    H  -0.083308  -0.048073   2.735275
    C  -1.376997   0.794758   0.679810
    C  -0.000249  -1.589933   0.679816
