28
B12C2H14
    B   1.475134   0.770016   0.815193
    B  -0.235693   1.455392   0.896757
    B  -1.378237  -0.523599   0.896738
    B   1.668019  -0.963030   0.678956
    B   0.070721  -1.662524   0.815190
    B   0.802120   1.442963  -0.720945
    B   1.760727   0.026330  -0.766380
    B   0.857564  -1.537977  -0.766391
    B  -0.848580  -1.416136  -0.720939
    B  -0.876943   1.594888  -0.807977
    B  -1.819694  -0.037984  -0.807973
    B   0.053093  -0.030653  -1.590642
    H  -2.855805  -0.142502  -1.364237
    H  -1.304489   2.544447  -1.364236
    H   1.308641   2.374251  -1.245897
    H   2.775600   0.093543  -1.366498
    H   1.306798  -2.450478  -1.366521
    H  -1.401843  -2.320436  -1.245892
    H   0.032427  -0.018724  -2.773027
    H  -2.609989   1.506875   0.744099
    H  -0.224140   2.318599   1.702169
    H   2.184686   1.428444   1.489944
    H   2.552402  -1.473633   1.268332
    H  -0.144706  -2.606234   1.489935
    H  -2.120027  -0.965211   1.702143
    H   0.341727  -0.197306   2.616768
    C   0.358986  -0.207266   1.534485
    C  -1.728499   0.997946   0.384996
