28
B12C2H14
    B  -1.500514  -0.582524  -1.136955
    B  -1.538240   1.125367  -0.616111
    B  -1.432713   0.634482   1.117852
    B   1.505387  -0.603651  -1.112923
    B   1.404261  -1.110996   0.647783
    B   1.535113   1.118647  -0.619334
    B   1.522877   0.649570   1.119606
    B   0.012385   0.420523  -1.412827
    B   0.003559  -1.393468  -0.566996
    B   0.020096   1.418875   0.300547
    B   2.582651  -0.037877   0.049037
    B  -2.561144  -0.026219   0.042631
    H  -3.715164  -0.173285   0.213976
    H  -1.940659   2.112311  -1.125908
    H  -1.824349   0.979886   2.176450
    H  -1.651013  -1.932700   1.052518
    H  -1.930631  -1.283807  -1.985110
    H  -0.013992   0.789662  -2.541664
    H  -0.056463  -0.544098   2.342878
    H  -0.021910   2.504508   0.789136
    H  -0.041304  -2.544348  -0.853154
    H   1.886860  -1.213340  -2.055008
    H   1.942174   2.096421  -1.147849
    H   1.763924   1.118684   2.178820
    H   1.673148  -2.088557   1.259632
    H   3.757233  -0.115771   0.084903
    C   0.015683  -0.286606   1.289122
    C  -1.397229  -1.032012   0.509063
