28
B12C2H14
    B  -1.473245  -0.586413  -1.136039
    B  -1.508760   1.142821  -0.625828
    B  -1.473347   0.641180   1.105909
    B   1.514478  -0.612736  -1.127857
    B   1.489057  -1.135750   0.621958
    B   1.504756   1.132182  -0.619883
    B   1.514386   0.620231   1.123874
    B   0.012687   0.406085  -1.394937
    B   0.001108  -1.392194  -0.413186
    B   0.001039  -0.401779   1.395526
    B   0.012608   1.394004   0.409271
    B  -2.567962   0.010152  -0.005681
    H  -3.730243  -0.143819   0.078581
    H  -1.883432   2.125724  -1.164069
    H  -1.904483   1.021952   2.136816
    H  -1.798464  -1.885004   1.032091
    H  -1.904287  -1.249912  -2.012171
    H  -0.010273   0.732951  -2.540174
    H  -0.068329  -0.741220   2.531107
    H  -0.010408   2.534961   0.750770
    H  -0.068189  -2.531792  -0.738901
    H   1.957167  -1.165081  -2.071467
    H   1.973074   2.081513  -1.139704
    H   1.957005   1.117754   2.097536
    H   1.956002  -2.086798   1.142768
    H   3.502081  -0.025547   0.014134
    C   2.425267  -0.007998   0.004477
    C  -1.419267  -0.995790   0.545191
