28
B12C2H14
    B  -1.477290  -0.602703  -1.118283
    B  -1.477129  -1.109150   0.617637
    B  -1.337860   1.164697  -0.595847
    B  -1.338305   0.658655   1.129162
    B   1.526782  -0.585700  -1.124242
    B   1.525376  -1.098664   0.630805
    B   1.351965   1.151231  -0.630564
    B   1.352181   0.628447   1.151670
    B   0.004056   0.151179  -1.582943
    B   0.010592  -1.455433  -0.426404
    B   0.003727  -0.722018   1.413530
    B  -2.513679   0.099920   0.028652
    H  -3.689375   0.138076   0.039929
    H  -1.673264   2.184048  -1.097203
    H  -1.675018   1.247052   2.100539
    H  -2.019693  -2.004801   1.173917
    H  -2.020668  -1.059157  -2.068227
    H  -0.022571   0.466378  -2.729202
    H  -0.022745  -1.072013   2.549642
    H   0.012437   2.449013   0.718646
    H   0.017257  -2.595003  -0.758495
    H   2.085262  -1.064726  -2.048466
    H   1.746574   2.144301  -1.131392
    H   1.746823   1.194392   2.109081
    H   2.083144  -1.999754   1.152875
    H   3.434817   0.177122   0.051951
    C   2.359590   0.109914   0.031964
    C   0.007038   1.404376   0.411380
