28
B12C2H14
    B  -1.499710  -0.590647  -1.138653
    B  -1.525443   1.131087  -0.635103
    B  -1.471188   0.627441   1.117924
    B   1.525630  -0.610799  -1.144254
    B   1.470943  -1.130814   0.604132
    B   1.499864   1.110988  -0.640823
    B   0.000101   0.404694  -1.384556
    B  -0.015492  -1.375141  -0.390525
    B  -0.000230  -0.398134   1.361154
    B   0.015555   1.368929   0.411728
    B   2.585293  -0.016442  -0.004457
    B  -2.585282   0.016275   0.004715
    H  -3.749933  -0.095860   0.115904
    H  -1.877783   2.133461  -1.150917
    H  -1.902438   1.014274   2.146584
    H  -1.801503  -1.898268   1.032991
    H  -1.910118  -1.250514  -2.026017
    H   0.000192   0.738914  -2.527136
    H  -0.000062  -0.730252   2.497078
    H   0.042041   2.498570   0.775609
    H  -0.042187  -2.522787  -0.692774
    H   1.878093  -1.177854  -2.118514
    H   1.910283   2.144764  -1.033429
    H   1.801233   1.042941   1.893053
    H   1.902341  -2.010627   1.262613
    H   3.749919   0.018014   0.149838
    C   1.464688   0.558079   0.984880
    C  -1.464783  -1.000615   0.529065
