28
B12C2H14
    B   0.103655   0.000000   1.596670
    B   1.530988   0.874906   0.762599
    B  -0.004914   1.710565   0.781360
    B   1.530988  -0.874906   0.762599
    B  -0.004914  -1.710565   0.781360
    B   0.873445   1.508520  -0.753341
    B   1.756519   0.000000  -0.749035
    B   0.873445  -1.508520  -0.753341
    B  -0.847450  -1.501992  -0.773961
    B  -0.847450   1.501992  -0.773961
    B  -1.730534   0.000000  -0.792563
    B   0.008414   0.000000  -1.592746
    H  -2.837029   0.000000  -1.195487
    H  -1.486021   2.369253  -1.256284
    H   1.346205   2.416413  -1.345578
    H   2.772960   0.000000  -1.352943
    H   1.346205  -2.416413  -1.345578
    H  -1.486021  -2.369253  -1.256284
    H  -0.023801   0.000000  -2.774270
    H  -2.226795   1.189609   1.203540
    H  -0.154094   2.703327   1.402533
    H   2.385102   1.422977   1.369399
    H   2.385102  -1.422977   1.369399
    H  -0.154094  -2.703327   1.402533
    H  -2.226795  -1.189609   1.203540
    H  -0.125910   0.000000   2.752215
    C  -1.378601   0.792821   0.663812
    C  -1.378601  -0.792821   0.663812
