28
B12C2H14
    B   0.071624   0.000000   1.588858
    B   1.530952   0.872957   0.763724
    B  -0.003418   1.710854   0.774221
    B   1.530952  -0.872957   0.763724
    B  -0.003418  -1.710854   0.774221
    B   0.873733   1.510112  -0.752987
    B   1.757137   0.000000  -0.751898
    B   0.873733  -1.510112  -0.752987
    B  -0.851967  -1.500456  -0.767458
    B  -0.851967   1.500456  -0.767458
    B  -1.724313   0.000000  -0.781277
    B   0.002097   0.000000  -1.590045
    H  -2.821302   0.000000  -1.207492
    H  -1.480212   2.366937  -1.261705
    H   1.340449   2.423651  -1.339908
    H   2.775167   0.000000  -1.352244
    H   1.340449  -2.423651  -1.339908
    H  -1.480212  -2.366937  -1.261705
    H  -0.043591   0.000000  -2.770584
    H  -2.223095   1.182340   1.206568
    H  -0.141959   2.702835   1.398025
    H   2.385218   1.416266   1.373319
    H   2.385218  -1.416266   1.373319
    H  -0.141959  -2.702835   1.398025
    H  -2.223095  -1.182340   1.206568
    H  -0.127134   0.000000   2.749221
    C  -1.374544   0.792727   0.663931
    C  -1.374544  -0.792727   0.663931
