28
B12C2H14
    B  -1.470584  -0.607037  -1.114512
    B  -1.470597  -1.111961   0.611786
    B  -1.342329   1.158636  -0.599449
    B  -1.344204   0.653258   1.129044
    B   1.522575  -0.589413  -1.121179
    B   1.522055  -1.101390   0.626525
    B   1.358821   1.146380  -0.635922
    B   1.360396   0.623625   1.153637
    B   0.004551   0.170364  -1.577015
    B   0.008760  -1.459097  -0.426505
    B   0.004440  -0.701100   1.419982
    B  -2.517669   0.092050   0.026534
    H  -3.692798   0.138840   0.039428
    H  -1.694380   2.175390  -1.094504
    H  -1.698468   1.242795   2.093287
    H  -2.007977  -2.008998   1.171338
    H  -2.009671  -1.059565  -2.069106
    H  -0.022243   0.501700  -2.719038
    H  -0.022759  -1.036351   2.560845
    H   0.013244   2.443837   0.718736
    H   0.018060  -2.598855  -0.758311
    H   2.075182  -1.071033  -2.047685
    H   1.760546   2.138873  -1.132073
    H   1.763368   1.191776   2.106211
    H   2.073617  -2.007076   1.147238
    H   3.437964   0.170652   0.049433
    C   2.363317   0.103666   0.030247
    C   0.006807   1.399711   0.411141
