28
B12C2H14
    B  -1.496908  -0.619800  -1.131896
    B  -1.497070  -1.131760   0.619758
    B  -1.496871   1.131837  -0.619957
    B  -1.497036   0.619914   1.131703
    B   1.497010  -0.619916  -1.131704
    B   1.496906  -1.131878   0.619948
    B   1.497041   1.131718  -0.619768
    B   1.496937   0.619802   1.131892
    B   0.000107   0.407364  -1.400226
    B  -0.000026  -1.400222  -0.407320
    B  -0.000105  -0.407370   1.400179
    B   0.000029   1.400180   0.407427
    H  -3.490591   0.000129  -0.000239
    H  -1.966307   2.081733  -1.139102
    H  -1.966594   1.139053   2.081540
    H  -1.966651  -2.081622   1.138832
    H  -1.966369  -1.138887  -2.081810
    H   0.000193   0.743408  -2.543919
    H  -0.000189  -0.743427   2.543869
    H   0.000051   2.543853   0.743535
    H  -0.000052  -2.543931  -0.743312
    H   1.966550  -1.139036  -2.081562
    H   1.966618   2.081578  -1.138850
    H   1.966419   1.138898   2.081791
    H   1.966343  -2.081775   1.139088
    H   3.490591  -0.000137   0.000216
    C   2.413266  -0.000107   0.000155
    C  -2.413264   0.000081  -0.000156
