28
B12C2H14
    B  -0.005614   0.000000   1.580126
    B   1.504786   0.869620   0.764078
    B  -0.005234   1.732222   0.761678
    B   1.504786  -0.869620   0.764078
    B  -0.005234  -1.732222   0.761678
    B   0.865938   1.508499  -0.758023
    B   1.740124   0.000000  -0.756881
    B   0.865938  -1.508499  -0.758023
    B  -0.871990  -1.503836  -0.758796
    B  -0.871990   1.503836  -0.758796
    B  -1.736638   0.000000  -0.757224
    B  -0.005753   0.000000  -1.581004
    H  -2.783405   0.000000  -1.318226
    H  -1.408001   2.396234  -1.332207
    H   1.373509   2.410631  -1.344671
    H   2.774581   0.000000  -1.345419
    H   1.373509  -2.410631  -1.344671
    H  -1.408001  -2.396234  -1.332207
    H  -0.019144   0.000000  -2.769339
    H  -2.321045   1.321474   1.301740
    H  -0.026958   2.761262   1.357374
    H   2.393799   1.390558   1.359562
    H   2.393799  -1.390558   1.359562
    H  -0.026958  -2.761262   1.357374
    H  -2.321045  -1.321474   1.301740
    H  -0.032323   0.000000   2.766575
    C  -1.470717   0.850586   0.739960
    C  -1.470717  -0.850586   0.739960
