28
B12C2H14
    B   0.113932   0.000000   1.600861
    B   1.529123   0.875017   0.762890
    B  -0.008828   1.704471   0.785126
    B   1.529123  -0.875017   0.762890
    B  -0.008828  -1.704471   0.785126
    B   0.870222   1.507894  -0.752923
    B   1.757472   0.000000  -0.747793
    B   0.870222  -1.507894  -0.752923
    B  -0.849170  -1.498763  -0.774275
    B  -0.849170   1.498763  -0.774275
    B  -1.733479   0.000000  -0.793653
    B   0.009226   0.000000  -1.592124
    H  -2.839947   0.000000  -1.196604
    H  -1.481132   2.371550  -1.255201
    H   1.347081   2.412931  -1.345791
    H   2.773414   0.000000  -1.352042
    H   1.347081  -2.412931  -1.345791
    H  -1.481132  -2.371550  -1.255201
    H  -0.018464   0.000000  -2.773690
    H  -2.230663   1.192792   1.200598
    H  -0.151247   2.702542   1.399162
    H   2.385283   1.424166   1.365746
    H   2.385283  -1.424166   1.365746
    H  -0.151247  -2.702542   1.399162
    H  -2.230663  -1.192792   1.200598
    H  -0.118389   0.000000   2.755716
    C  -1.382552   0.790999   0.664331
    C  -1.382552  -0.790999   0.664331
