28
B12C2H14
    B   0.000000   0.000000   1.581373
    B   1.510035   0.872098   0.760379
    B   0.000000   1.743781   0.759428
    B  -1.510035  -0.872098   0.760379
    B   1.510035  -0.872098   0.760379
    B   0.000000  -1.743781   0.759428
    B   0.872098   1.510035  -0.760379
    B   1.743781   0.000000  -0.759428
    B  -0.872098  -1.510035  -0.760379
    B  -0.872098   1.510035  -0.760379
    B  -1.743781   0.000000  -0.759428
    B   0.000000   0.000000  -1.581373
    H  -2.788226   0.000000  -1.351614
    H  -1.394084   2.414222  -1.353130
    H   1.394084   2.414222  -1.353130
    H   2.788226   0.000000  -1.351614
    H   1.394084  -2.414222  -1.353130
    H  -1.394084  -2.414222  -1.353130
    H   0.000000   0.000000  -2.779521
    H  -2.414222   1.394084   1.353130
    H   0.000000   2.788226   1.351614
    H   2.414222   1.394084   1.353130
    H   2.414222  -1.394084   1.353130
    H   0.000000  -2.788226   1.351614
    H  -2.414222  -1.394084   1.353130
    H   0.000000   0.000000   2.779521
    C  -1.510035   0.872098   0.760379
    C   0.872098  -1.510035  -0.760379
