28
B12C2H14
    B  -1.489872  -0.583561  -1.141522
    B  -1.525761   1.132436  -0.633280
    B  -1.469105   0.632851   1.111217
    B   1.525910  -0.613096  -1.143327
    B   1.469000  -1.131839   0.595526
    B   1.489989   1.106463  -0.647271
    B   0.000102   0.405964  -1.388854
    B  -0.014267  -1.387593  -0.382616
    B  -0.000081  -0.401408   1.373040
    B   0.014252   1.375161   0.425043
    B   2.581505  -0.011965  -0.005207
    B  -2.581506   0.013002   0.001716
    H  -3.744716  -0.113189   0.113525
    H  -1.862195   2.139327  -1.150764
    H  -1.911766   1.015168   2.137225
    H  -1.814346  -1.888895   1.035453
    H  -1.900098  -1.244029  -2.028889
    H   0.000173   0.740157  -2.531839
    H  -0.000193  -0.733379   2.508466
    H   0.051467   2.506446   0.781815
    H  -0.051455  -2.532881  -0.691486
    H   1.862488  -1.182626  -2.121671
    H   1.900260   2.140933  -1.039026
    H   1.814121   1.033621   1.890156
    H   1.911549  -2.006630   1.254081
    H   3.744693   0.034044   0.157147
    C   1.454781   0.555246   0.988175
    C  -1.454903  -1.000052   0.533279
