28
B12C2H14
    B   0.000000   0.000000   1.566935
    B   1.487543   0.843432   0.778398
    B  -0.013337   1.709949   0.778422
    B  -1.487543  -0.843432   0.778398
    B   0.013337  -1.709949   0.778422
    B   0.868643   1.504551  -0.755804
    B   1.733207   0.013068  -0.768636
    B   0.855304  -1.507574  -0.768617
    B  -0.868643  -1.504551  -0.755804
    B  -0.855304   1.507574  -0.768617
    B  -1.733207  -0.013068  -0.768636
    B   0.000000   0.000000  -1.591793
    H  -2.801683   0.052928  -1.263571
    H  -1.446701   2.399927  -1.263504
    H   1.383959   2.397146  -1.334798
    H   2.801683  -0.052928  -1.263571
    H   1.446701  -2.399927  -1.263504
    H  -1.383959  -2.397146  -1.334798
    H   0.000000   0.000000  -2.773471
    H  -2.230047   1.287507   1.177983
    H  -0.087865   2.712895   1.395531
    H   2.393432   1.280338   1.395453
    H   2.230047  -1.287507   1.177983
    H   0.087865  -2.712895   1.395531
    H  -2.393432  -1.280338   1.395453
    H   0.000000   0.000000   2.744583
    C  -1.409435   0.813735   0.656017
    C   1.409435  -0.813735   0.656017
