28
B12C2H14
    B   0.033205   0.000000   1.581404
    B   1.519747   0.869348   0.764749
    B  -0.006730   1.709927   0.768141
    B   1.519747  -0.869348   0.764749
    B  -0.006730  -1.709927   0.768141
    B   0.869080   1.508495  -0.754336
    B   1.751164   0.000000  -0.754029
    B   0.869080  -1.508495  -0.754336
    B  -0.858934  -1.496386  -0.762251
    B  -0.858934   1.496386  -0.762251
    B  -1.721435   0.000000  -0.768660
    B  -0.003307   0.000000  -1.586679
    H  -2.801850   0.000000  -1.231901
    H  -1.460063   2.367648  -1.277577
    H   1.342697   2.419238  -1.336930
    H   2.771621   0.000000  -1.347908
    H   1.342697  -2.419238  -1.336930
    H  -1.460063  -2.367648  -1.277577
    H  -0.047321   0.000000  -2.765893
    H  -2.224579   1.195959   1.225189
    H  -0.113089   2.708567   1.385330
    H   2.379549   1.403446   1.372396
    H   2.379549  -1.403446   1.372396
    H  -0.113089  -2.708567   1.385330
    H  -2.224579  -1.195959   1.225189
    H  -0.108125   0.000000   2.749033
    C  -1.384655   0.798357   0.677607
    C  -1.384655  -0.798357   0.677607
