28
B12C2H14
    B  -1.501572  -0.586488  -1.142053
    B  -1.521160   1.128556  -0.620775
    B  -1.438379   0.633905   1.107157
    B   1.510498  -0.603331  -1.123374
    B   1.431634  -1.112941   0.636832
    B   1.522651   1.122869  -0.626212
    B   1.511096   0.647708   1.110418
    B   0.011939   0.410547  -1.413903
    B   0.001456  -1.383788  -0.507532
    B   0.018348   1.420679   0.334561
    B   2.582821  -0.025755   0.035278
    B  -2.563894  -0.014733   0.031878
    H  -3.719243  -0.151800   0.201357
    H  -1.925844   2.117361  -1.125665
    H  -1.802735   0.989870   2.171244
    H  -1.689080  -1.921876   1.040093
    H  -1.914356  -1.269511  -2.011846
    H  -0.016985   0.744720  -2.554632
    H  -0.054857  -0.613669   2.305048
    H  -0.019776   2.497856   0.840096
    H  -0.042783  -2.546469  -0.745061
    H   1.873695  -1.203325  -2.077573
    H   1.908090   2.113278  -1.147309
    H   1.772929   1.123274   2.161489
    H   1.708324  -2.081394   1.258706
    H   3.756429  -0.099133   0.100262
    C   0.022321  -0.313567   1.262610
    C  -1.421545  -1.023166   0.499018
