28
B12C2H14
    B   0.018538  -0.002988   1.582834
    B   1.506247   0.861023   0.763021
    B  -0.005978   1.717998   0.763158
    B  -1.488911  -0.846758   0.753944
    B   1.518392  -0.869974   0.757942
    B   0.001968  -1.718298   0.781418
    B   0.861023   1.506247  -0.763021
    B   1.717998  -0.005978  -0.763158
    B  -0.846758  -1.488911  -0.753944
    B  -0.869974   1.518392  -0.757942
    B  -1.718298   0.001968  -0.781418
    B  -0.002988   0.018538  -1.582834
    H  -2.777504   0.029368  -1.297586
    H  -1.458182   2.405309  -1.265380
    H   1.370654   2.392888  -1.354785
    H   2.724153  -0.093654  -1.373410
    H   1.259698  -2.213084  -1.195139
    H  -1.298158  -2.403827  -1.346247
    H   0.029173  -0.067673  -2.758085
    H  -2.213084   1.259698   1.195139
    H  -0.093654   2.724153   1.373410
    H   2.392888   1.370654   1.354785
    H   2.405309  -1.458182   1.265380
    H   0.029368  -2.777504   1.297586
    H  -2.403827  -1.298158   1.346247
    H  -0.067673   0.029173   2.758085
    C  -1.390468   0.800048   0.664937
    C   0.800048  -1.390468  -0.664937
