28
B12C2H14
    B   1.514220   0.872287   0.743771
    B   0.000000   1.740197   0.748224
    B  -1.514220   0.872287   0.743771
    B  -1.514220  -0.872287   0.743771
    B   1.514220  -0.872287   0.743771
    B   0.000000  -1.740197   0.748224
    B   0.872287   1.514220  -0.743771
    B   1.740197   0.000000  -0.748224
    B   0.872287  -1.514220  -0.743771
    B  -0.872287  -1.514220  -0.743771
    B  -0.872287   1.514220  -0.743771
    B  -1.740197   0.000000  -0.748224
    H  -2.705312   0.000000  -1.426843
    H  -1.357644   2.354035  -1.415293
    H   1.357644   2.354035  -1.415293
    H   2.705312   0.000000  -1.426843
    H   1.357644  -2.354035  -1.415293
    H  -1.357644  -2.354035  -1.415293
    H   0.000000   0.000000  -2.513681
    H  -2.354035   1.357644   1.415293
    H   0.000000   2.705312   1.426843
    H   2.354035   1.357644   1.415293
    H   2.354035  -1.357644   1.415293
    H   0.000000  -2.705312   1.426843
    H  -2.354035  -1.357644   1.415293
    H   0.000000   0.000000   2.513681
    C   0.000000   0.000000  -1.431535
    C   0.000000   0.000000   1.431535
