28
B12C2H14
    B  -1.511797  -0.612244  -1.118502
    B  -1.518382   1.112549  -0.610416
    B  -1.505472   0.611375   1.120680
    B   1.518108  -0.609336  -1.112996
    B   1.505325  -1.118056   0.616077
    B   1.511975   1.117978  -0.613160
    B   0.000180   0.403298  -1.379787
    B  -0.004381  -1.377357  -0.400175
    B  -0.000339  -0.402077   1.373741
    B   0.004271   1.375734   0.404457
    B   2.604269   0.001619   0.008689
    B  -2.604177  -0.005687   0.006137
    H  -3.786569  -0.020475   0.020631
    H  -1.899695   2.101653  -1.145843
    H  -1.879628   1.134202   2.119938
    H  -1.859314  -2.023139   1.109789
    H  -1.889048  -1.168680  -2.097723
    H   0.000379   0.738970  -2.526695
    H  -0.001055  -0.736933   2.519000
    H   0.007535   2.519473   0.748184
    H  -0.007344  -2.526198  -0.726326
    H   1.899987  -1.153191  -2.097259
    H   1.889171   2.114864  -1.137295
    H   1.858866   1.106739   2.025280
    H   1.880155  -2.097709   1.174398
    H   3.786654   0.005712   0.028871
    C   1.508569   0.599564   1.092330
    C  -1.508219  -1.092970   0.598086
