28
B12C2H14
    B   0.008662  -0.002002   1.581784
    B   1.508693   0.863233   0.767152
    B  -0.010818   1.719422   0.756379
    B  -1.470053  -0.843646   0.767980
    B   1.517496  -0.877405   0.747898
    B   0.003810  -1.723005   0.772719
    B   0.875584   1.518549  -0.747896
    B   1.738229   0.006827  -0.766877
    B   0.850452  -1.494414  -0.756633
    B  -0.858212   1.494041  -0.773027
    B  -1.694906  -0.004484  -0.767697
    B   0.006466   0.006082  -1.581781
    H  -2.742346  -0.040362  -1.300038
    H  -1.447086   2.362551  -1.306947
    H   1.356813   2.422300  -1.335229
    H   2.752237  -0.008124  -1.370739
    H   1.275390  -2.415145  -1.357535
    H  -1.307501  -2.192401  -1.200393
    H  -0.055136  -0.051927  -2.756603
    H  -2.228577   1.244856   1.200378
    H  -0.103066   2.729373   1.357143
    H   2.379340   1.383062   1.371148
    H   2.386189  -1.419339   1.335253
    H  -0.072028  -2.769663   1.306512
    H  -2.395097  -1.336150   1.300439
    H  -0.073681   0.017451   2.756607
    C  -1.394047   0.801030   0.678570
    C  -0.806807  -1.390711  -0.678567
