28
B12C2H14
    B  -1.485169  -0.597320  -1.116319
    B  -1.485040  -1.104041   0.618507
    B  -1.369543   1.161107  -0.601361
    B  -1.370219   0.653411   1.132096
    B   1.523702  -0.591770  -1.119473
    B   1.522826  -1.101283   0.623867
    B   1.371044   1.147373  -0.636198
    B   1.371292   0.622882   1.154448
    B   0.004293   0.169799  -1.558008
    B   0.007855  -1.444375  -0.422916
    B   0.004093  -0.693855   1.403742
    B  -2.531678   0.088428   0.025309
    H  -3.707731   0.108589   0.031113
    H  -1.673418   2.189966  -1.101667
    H  -1.675284   1.250699   2.107678
    H  -2.005979  -2.014136   1.171880
    H  -2.006554  -1.066402  -2.072290
    H  -0.015823   0.503626  -2.700041
    H  -0.015857  -1.026750   2.546136
    H   0.011819   2.418846   0.708813
    H   0.014238  -2.583909  -0.754847
    H   2.083562  -1.069874  -2.043064
    H   1.761247   2.150693  -1.118943
    H   1.761876   1.207495   2.101875
    H   2.082035  -2.001553   1.145248
    H   3.445082   0.143484   0.041784
    C   2.368661   0.102989   0.029915
    C   0.008695   1.375556   0.402827
