28
B12C2H14
    B   0.010367  -0.000914   1.580131
    B   1.501823   0.857423   0.762255
    B  -0.008909   1.715968   0.759225
    B  -1.484827  -0.846055   0.751767
    B   1.510153  -0.871137   0.758082
    B   0.005039  -1.717104   0.774767
    B   0.857423   1.501823  -0.762255
    B   1.715968  -0.008909  -0.759225
    B  -0.846055  -1.484827  -0.751767
    B  -0.871137   1.510153  -0.758082
    B  -1.717104   0.005039  -0.774767
    B  -0.000914   0.010367  -1.580131
    H  -2.765327   0.022339  -1.309939
    H  -1.439049   2.396448  -1.286208
    H   1.363947   2.389255  -1.351951
    H   2.726553  -0.073577  -1.362467
    H   1.263280  -2.221769  -1.213720
    H  -1.316116  -2.390849  -1.340043
    H   0.017193  -0.048496  -2.756000
    H  -2.221769   1.263280   1.213720
    H  -0.073577   2.726553   1.362467
    H   2.389255   1.363947   1.351951
    H   2.396448  -1.439049   1.286208
    H   0.022339  -2.765327   1.309939
    H  -2.390849  -1.316116   1.340043
    H  -0.048496   0.017193   2.756000
    C  -1.402617   0.806957   0.679850
    C   0.806957  -1.402617  -0.679850
