28
B12C2H14
    B  -1.471039  -0.605704  -1.115282
    B  -1.471612  -1.110644   0.612951
    B  -1.339424   1.160175  -0.598776
    B  -1.341583   0.654788   1.129325
    B   1.522892  -0.588348  -1.121691
    B   1.522731  -1.100169   0.627086
    B   1.355947   1.147479  -0.634904
    B   1.357784   0.624804   1.153554
    B   0.004446   0.164489  -1.579981
    B   0.009663  -1.459922  -0.426649
    B   0.004450  -0.707647   1.419354
    B  -2.516149   0.094696   0.027104
    H  -3.691422   0.138151   0.039021
    H  -1.687904   2.177534  -1.095257
    H  -1.692493   1.244176   2.094998
    H  -2.012626  -2.006088   1.171578
    H  -2.013426  -1.057915  -2.068153
    H  -0.022725   0.489690  -2.723635
    H  -0.023051  -1.047945   2.558697
    H   0.013095   2.446879   0.720596
    H   0.019077  -2.599599  -0.758509
    H   2.077502  -1.068966  -2.047597
    H   1.754892   2.140812  -1.131835
    H   1.758135   1.192988   2.107341
    H   2.076678  -2.004448   1.147915
    H   3.436910   0.171558   0.049494
    C   2.362274   0.106334   0.030903
    C   0.007003   1.402521   0.412462
