28
B12C2H14
    B  -1.496587  -0.588017  -1.140135
    B  -1.525554   1.132339  -0.636106
    B  -1.470541   0.630533   1.115948
    B   1.525768  -0.611355  -1.145730
    B   1.470376  -1.132405   0.600761
    B   1.496708   1.109527  -0.643562
    B   0.000129   0.404671  -1.384752
    B  -0.015378  -1.380256  -0.386856
    B  -0.000154  -0.400018   1.368037
    B   0.015370   1.371283   0.417459
    B   2.584070  -0.015666  -0.006779
    B  -2.584059   0.016944   0.002345
    H  -3.747834  -0.104003   0.116322
    H  -1.868049   2.137915  -1.152493
    H  -1.911337   1.011335   2.143199
    H  -1.808248  -1.894566   1.033539
    H  -1.908251  -1.251450  -2.024612
    H   0.000242   0.738867  -2.527850
    H  -0.000073  -0.732042   2.503827
    H   0.046350   2.503328   0.773455
    H  -0.046539  -2.525776  -0.696732
    H   1.868373  -1.180468  -2.122395
    H   1.908339   2.144910  -1.031449
    H   1.807962   1.039318   1.891604
    H   1.911258  -2.006562   1.261090
    H   3.747811   0.024812   0.154653
    C   1.461022   0.557468   0.986545
    C  -1.461148  -1.000990   0.530775
