28
B12C2H14
    B  -1.502054  -0.584303  -1.132450
    B  -1.523828   1.135538  -0.622134
    B  -1.502161   0.639662   1.102126
    B   1.502100  -0.584416  -1.132201
    B   1.523952   1.135460  -0.621810
    B   1.502242   0.639501   1.102420
    B   0.000076   0.397675  -1.383137
    B  -0.000061  -1.344845  -0.423927
    B  -0.000014  -0.367533   1.361134
    B   0.000072   1.379271   0.410355
    B   2.578201  -0.012272   0.006862
    B  -2.578201  -0.012108   0.006610
    H  -3.738504  -0.172764   0.094562
    H  -1.918384   2.111323  -1.156403
    H  -1.887417   1.024541   2.148133
    H  -1.757952  -1.900149   1.040184
    H  -1.887336  -1.257991  -2.020362
    H   0.000159   0.691696  -2.535276
    H  -0.000101  -0.738915   2.485839
    H   0.000067   2.508380   0.783202
    H  -0.000019  -2.492578  -0.716439
    H   1.887465  -1.258223  -2.019988
    H   1.918713   2.111167  -1.156077
    H   1.887055   1.024490   2.148544
    H   1.757703  -1.900197   1.040517
    H   3.738465  -0.173237   0.094795
    C   1.418789  -0.999767   0.547683
    C  -1.419004  -0.999730   0.547350
