28
B12C2H14
    B  -1.489271  -0.583214  -1.141312
    B  -1.525114   1.132584  -0.633018
    B  -1.469213   0.633037   1.111363
    B   1.525249  -0.613354  -1.143176
    B   1.469113  -1.132070   0.595549
    B   1.489392   1.106071  -0.647259
    B   0.000107   0.406383  -1.390161
    B  -0.014148  -1.388561  -0.382746
    B  -0.000078  -0.401538   1.373510
    B   0.014132   1.376049   0.425470
    B   2.581267  -0.011877  -0.005193
    B  -2.581267   0.012926   0.001675
    H  -3.744545  -0.113142   0.113007
    H  -1.862569   2.138888  -1.151051
    H  -1.911292   1.015424   2.137605
    H  -1.813082  -1.889091   1.035400
    H  -1.900226  -1.243856  -2.028263
    H   0.000192   0.740540  -2.533101
    H  -0.000181  -0.733506   2.508948
    H   0.051967   2.507285   0.782259
    H  -0.051975  -2.533831  -0.691540
    H   1.862845  -1.182118  -2.121651
    H   1.900415   2.140451  -1.038586
    H   1.812821   1.033739   1.890091
    H   1.911070  -2.007050   1.254265
    H   3.744526   0.034285   0.156675
    C   1.454157   0.555062   0.988072
    C  -1.454268  -0.999837   0.533279
