28
B12C2H14
    B  -0.001347  -0.001814   1.579038
    B   1.503842   0.863718   0.764810
    B  -0.010954   1.721854   0.755629
    B  -1.480499  -0.851336   0.761849
    B   1.508140  -0.875493   0.753005
    B  -0.001657  -1.726113   0.766592
    B   0.868549   1.512150  -0.753011
    B   1.734288   0.004039  -0.764273
    B   0.851588  -1.496543  -0.756158
    B  -0.864543   1.493953  -0.767161
    B  -1.707817  -0.003106  -0.761290
    B  -0.002103   0.000920  -1.579038
    H  -2.748272  -0.025862  -1.313707
    H  -1.424342   2.371138  -1.323066
    H   1.360417   2.413025  -1.339966
    H   2.754098  -0.005184  -1.362470
    H   1.311488  -2.406884  -1.351725
    H  -1.314644  -2.212437  -1.221884
    H  -0.043351  -0.032551  -2.757793
    H  -2.244712   1.258747   1.221888
    H  -0.067755   2.740401   1.350881
    H   2.382271   1.381434   1.363319
    H   2.384607  -1.409626   1.339970
    H  -0.047977  -2.765864   1.322185
    H  -2.392825  -1.351669   1.314572
    H  -0.053796   0.006572   2.757793
    C  -1.425853   0.816292   0.703247
    C  -0.826840  -1.419762  -0.703237
