28
B12C2H14
    B   0.012140   0.007149   1.571943
    B   1.495048   0.863324   0.774053
    B  -0.008226   1.726677   0.757099
    B  -1.473604  -0.850996   0.750547
    B   1.491057  -0.870529   0.757650
    B   0.866789   1.506047  -0.754037
    B   1.737693  -0.002501  -0.753486
    B   0.863248  -1.500682  -0.758468
    B  -0.865949  -1.495779  -0.757063
    B  -0.868192   1.497847  -0.758503
    B  -1.728376  -0.001919  -0.756517
    B  -0.003110  -0.001787  -1.581871
    H  -2.777920   0.002204  -1.295460
    H  -1.422745   2.385053  -1.304718
    H   1.368676   2.404295  -1.336223
    H   2.766753  -0.016908  -1.335356
    H   1.354183  -2.424604  -1.304704
    H  -1.386991  -2.406634  -1.296346
    H  -0.019799  -0.011401  -2.763447
    H  -2.226625   1.260309   1.255640
    H  -0.060148   2.742528   1.358218
    H   2.373575   1.370423   1.381084
    H   2.344687  -1.423240   1.359112
    H  -0.021847  -2.558839   1.254844
    H  -2.351073  -1.357515   1.354440
    H  -0.034476  -0.019800   2.748706
    C  -1.420772   0.815795   0.716677
    C  -0.003995  -1.638516   0.716185
