28
B12C2H14
    B  -1.509109  -0.614822  -1.121948
    B  -1.509588  -1.121857   0.614729
    B  -1.509424   1.121821  -0.614933
    B  -1.509400   0.615212   1.121706
    B   1.509165  -0.614708  -1.121918
    B   1.509265  -1.121813   0.614804
    B   1.509335   1.122054  -0.614699
    B   1.509873   0.614914   1.121857
    B   0.000218   0.406699  -1.390730
    B  -0.000108  -1.391048  -0.406198
    B  -0.000304  -0.407100   1.390326
    B  -0.000062   1.390387   0.407151
    H  -3.680325   0.000391  -0.000484
    H  -1.892710   2.109687  -1.155294
    H  -1.892904   1.155177   2.109679
    H  -1.893471  -2.109500   1.155067
    H  -1.892620  -1.155039  -2.109805
    H   0.000442   0.743033  -2.540361
    H  -0.001108  -0.743166   2.540005
    H   0.000078   2.540055   0.743341
    H   0.000078  -2.540892  -0.741662
    H   1.893028  -1.155088  -2.109538
    H   1.892833   2.109816  -1.155066
    H   1.892893   1.155312   2.109800
    H   1.893409  -2.109668   1.154590
    H   3.680428  -0.000492  -0.000138
    C   2.555558   0.000053   0.000093
    C  -2.555445   0.000256  -0.000261
