28
B12C2H14
    B   0.000000   0.000000   1.577575
    B   1.482852   0.832424   0.771195
    B  -0.020749   1.700242   0.771748
    B  -1.482852  -0.832424   0.771195
    B   0.020749  -1.700242   0.771748
    B   0.864436   1.497665  -0.749227
    B   1.731717   0.002287  -0.764179
    B   0.863486  -1.501019  -0.763619
    B  -0.864436  -1.497665  -0.749227
    B  -0.863486   1.501019  -0.763619
    B  -1.731717  -0.002287  -0.764179
    B   0.000000   0.000000  -1.586510
    H  -2.784795   0.027861  -1.290587
    H  -1.415926   2.398331  -1.289713
    H   1.381595   2.393507  -1.316637
    H   2.784795  -0.027861  -1.290587
    H   1.415926  -2.398331  -1.289713
    H  -1.381595  -2.393507  -1.316637
    H   0.000000   0.000000  -2.766449
    H  -2.235534   1.290309   1.201787
    H  -0.066430   2.706576   1.383673
    H   2.377419   1.295973   1.382862
    H   2.235534  -1.290309   1.201787
    H   0.066430  -2.706576   1.383673
    H  -2.377419  -1.295973   1.382862
    H   0.000000   0.000000   2.752996
    C  -1.419891   0.819474   0.673891
    C   1.419891  -0.819474   0.673891
