28
B12C2H14
    B  -1.472374  -0.606647  -1.115559
    B  -1.472465  -1.111377   0.613098
    B  -1.341029   1.160441  -0.597832
    B  -1.342354   0.655406   1.128837
    B   1.524419  -0.588702  -1.122288
    B   1.523725  -1.100924   0.627783
    B   1.356621   1.147893  -0.633959
    B   1.357752   0.625673   1.153161
    B   0.004217   0.162744  -1.578235
    B   0.009189  -1.458503  -0.427061
    B   0.004241  -0.707647   1.417776
    B  -2.516300   0.095143   0.027317
    H  -3.691504   0.141358   0.040298
    H  -1.690180   2.177263  -1.094894
    H  -1.693674   1.244020   2.094782
    H  -2.011711  -2.008013   1.171412
    H  -2.012927  -1.060447  -2.068687
    H  -0.022832   0.490680  -2.721172
    H  -0.022762  -1.047087   2.557477
    H   0.013531   2.447027   0.719166
    H   0.017070  -2.597896  -0.760075
    H   2.078741  -1.069784  -2.048086
    H   1.757294   2.139608  -1.132636
    H   1.759439   1.191972   2.107460
    H   2.077213  -2.005572   1.148329
    H   3.436989   0.175096   0.051165
    C   2.362810   0.105490   0.030933
    C   0.006883   1.402464   0.411603
