28
B12C2H14
    B  -1.473427  -0.606514  -1.116163
    B  -1.473934  -1.111288   0.613847
    B  -1.341603   1.161025  -0.597245
    B  -1.342608   0.655932   1.128646
    B   1.525034  -0.588824  -1.122936
    B   1.524607  -1.100997   0.628161
    B   1.356681   1.148512  -0.632973
    B   1.357535   0.626201   1.152725
    B   0.004064   0.161753  -1.577825
    B   0.009353  -1.458014  -0.426778
    B   0.004042  -0.708850   1.416574
    B  -2.516134   0.095937   0.027459
    H  -3.691409   0.141610   0.040341
    H  -1.688440   2.178206  -1.095273
    H  -1.691276   1.244369   2.095694
    H  -2.012807  -2.008474   1.171562
    H  -2.013023  -1.061857  -2.069049
    H  -0.022927   0.488805  -2.721001
    H  -0.022757  -1.049156   2.556127
    H   0.013545   2.447353   0.718792
    H   0.016447  -2.597433  -0.759911
    H   2.079249  -1.069951  -2.048744
    H   1.756487   2.140244  -1.132406
    H   1.758090   1.192023   2.107854
    H   2.078445  -2.005301   1.148913
    H   3.436834   0.176303   0.051587
    C   2.363025   0.105732   0.030953
    C   0.006933   1.402331   0.411181
