28
B12C2H14
    B  -1.474112  -0.587451  -1.135668
    B  -1.508242   1.142679  -0.625756
    B  -1.474237   0.640320   1.106595
    B   1.514899  -0.611746  -1.128345
    B   1.488988  -1.135923   0.622045
    B   1.505175   1.132019  -0.619809
    B   1.514819   0.621195   1.123299
    B   0.012909   0.405145  -1.393243
    B   0.001001  -1.390783  -0.412598
    B   0.000919  -0.401467   1.394012
    B   0.012831   1.392057   0.409125
    B  -2.568946   0.011580  -0.006458
    H  -3.731274  -0.141951   0.077527
    H  -1.883002   2.125553  -1.163956
    H  -1.906166   1.020837   2.137204
    H  -1.799873  -1.885529   1.032362
    H  -1.905965  -1.250806  -2.011439
    H  -0.010695   0.732699  -2.538320
    H  -0.067533  -0.740450   2.529807
    H  -0.010854   2.533237   0.750008
    H  -0.067407  -2.530318  -0.738796
    H   1.958723  -1.164022  -2.071442
    H   1.974556   2.080934  -1.139391
    H   1.958572   1.118290   2.096643
    H   1.958154  -2.086115   1.142378
    H   3.502606  -0.025790   0.014258
    C   2.425741  -0.008177   0.004579
    C  -1.421563  -0.996343   0.545491
