28
B12C2H14
    B   0.038210  -0.007870   1.585941
    B   1.511049   0.862611   0.767874
    B  -0.008735   1.725935   0.762334
    B  -1.473474  -0.838881   0.786441
    B   1.529720  -0.881142   0.742574
    B   0.014118  -1.726176   0.782196
    B   0.884208   1.527956  -0.742562
    B   1.739916   0.008484  -0.767861
    B   0.855411  -1.499071  -0.762329
    B  -0.850858   1.501977  -0.782197
    B  -1.695497  -0.010243  -0.786460
    B   0.029171   0.025924  -1.585939
    H  -2.760487  -0.058868  -1.285904
    H  -1.479829   2.368712  -1.276961
    H   1.368768   2.428068  -1.336646
    H   2.753762  -0.011645  -1.375757
    H   1.248411  -2.430121  -1.371847
    H  -1.291358  -2.199252  -1.180716
    H  -0.050666  -0.078760  -2.758589
    H  -2.217987   1.258926   1.180698
    H  -0.133922   2.728747   1.371852
    H   2.378990   1.386968   1.375783
    H   2.399407  -1.418395   1.336664
    H  -0.097217  -2.791278   1.276955
    H  -2.420096  -1.329271   1.285876
    H  -0.083285   0.042868   2.758590
    C  -1.386048   0.797323   0.665205
    C  -0.801682  -1.383525  -0.665216
