28
B12C2H14
    B   1.474175   0.770185   0.814395
    B  -0.235627   1.454044   0.898160
    B  -1.377044  -0.522977   0.898149
    B   1.667878  -0.962947   0.679580
    B   0.070093  -1.661774   0.814390
    B   0.802262   1.443985  -0.721320
    B   1.760656   0.026422  -0.766169
    B   0.857450  -1.537965  -0.766181
    B  -0.849393  -1.416767  -0.721317
    B  -0.876881   1.596027  -0.807504
    B  -1.820651  -0.038612  -0.807498
    B   0.054015  -0.031183  -1.590885
    H  -2.855944  -0.143697  -1.365122
    H  -1.303525   2.545159  -1.365126
    H   1.309976   2.374917  -1.245686
    H   2.775227   0.094087  -1.366765
    H   1.306141  -2.450434  -1.366787
    H  -1.401740  -2.321928  -1.245688
    H   0.031836  -0.018377  -2.773244
    H  -2.610024   1.506897   0.743895
    H  -0.223887   2.317842   1.702942
    H   2.185034   1.427479   1.488978
    H   2.551825  -1.473297   1.269752
    H  -0.143706  -2.606048   1.488966
    H  -2.119250  -0.965050   1.702923
    H   0.341257  -0.197034   2.616590
    C   0.358430  -0.206946   1.534312
    C  -1.728583   0.997995   0.384408
