28
B12C2H14
    B  -1.496269  -0.619431  -1.131616
    B  -1.496471  -1.131484   0.619391
    B  -1.496239   1.131543  -0.619616
    B  -1.496421   0.619580   1.131411
    B   1.496373  -0.619542  -1.131424
    B   1.496297  -1.131595   0.619586
    B   1.496399   1.131431  -0.619418
    B   1.496342   0.619462   1.131605
    B   0.000108   0.408449  -1.399997
    B  -0.000029  -1.399989  -0.408344
    B  -0.000106  -0.408461   1.399897
    B   0.000029   1.399911   0.408553
    H  -3.490716   0.000130  -0.000244
    H  -1.965844   2.081167  -1.139014
    H  -1.966173   1.138957   2.080972
    H  -1.966254  -2.081064   1.138706
    H  -1.965911  -1.138757  -2.081262
    H   0.000199   0.742918  -2.543927
    H  -0.000207  -0.742942   2.543824
    H   0.000049   2.543806   0.743140
    H  -0.000046  -2.543952  -0.742701
    H   1.966096  -1.138907  -2.081008
    H   1.966152   2.081012  -1.138762
    H   1.966004   1.138814   2.081224
    H   1.965945  -2.081216   1.138947
    H   3.490715  -0.000145   0.000195
    C   2.413495  -0.000103   0.000152
    C  -2.413493   0.000084  -0.000158
