30
B13C2H15
    B   0.009555   0.000000   1.691286
    B   1.461578   0.843469   0.782216
    B  -0.016830   1.803926   1.007070
    B  -1.475339   0.841182   0.852073
    B  -1.475339  -0.841182   0.852073
    B   1.461578  -0.843469   0.782216
    B  -0.016830  -1.803926   1.007070
    B   1.479936   0.000000  -0.854419
    B  -0.880649  -1.803639  -0.488932
    B  -0.880649   1.803639  -0.488932
    B  -1.459764   0.000000  -0.854030
    B   0.053437  -0.843492  -1.656816
    B   0.053437   0.843492  -1.656816
    H   0.051057   0.000000   2.873030
    H  -2.430834   1.268479   1.403676
    H  -2.430834  -1.268479   1.403676
    H   0.072544  -2.748118   1.705929
    H   2.424180  -1.296588   1.293050
    H   2.424180   1.296588   1.293050
    H   0.072544   2.748118   1.705929
    H   2.500777   0.000000  -1.443722
    H   1.330240  -2.594359  -0.767930
    H  -1.441212  -2.747781  -0.915861
    H  -2.462501   0.000000  -1.480730
    H  -1.441212   2.747781  -0.915861
    H   1.330240   2.594359  -0.767930
    H   0.092362   1.296529  -2.745901
    H   0.092362  -1.296529  -2.745901
    C   0.750992   1.744461  -0.433554
    C   0.750992  -1.744461  -0.433554
