30
B13C2H15
    B   0.001346  -0.001124   1.702594
    B   1.475855   0.847340   0.865020
    B   0.014140   1.830145   0.994031
    B  -1.453676   0.852445   0.839012
    B  -1.431275  -0.843743   0.849444
    B   1.465782  -0.843218   0.856631
    B   0.007665  -1.828455   0.986208
    B   0.861186   1.804426  -0.495632
    B   1.482448  -0.009266  -0.818553
    B   0.871613  -1.820703  -0.503267
    B  -0.838711  -1.845204  -0.493341
    B  -0.847332   1.874855  -0.457384
    B   0.021790  -0.857807  -1.687185
    H  -0.036739   0.002966   2.884172
    H  -2.484846   1.227073   1.275895
    H  -2.475251  -1.214037   1.258616
    H  -0.028493  -2.734651   1.742851
    H   2.434321  -1.267126   1.387536
    H   2.429565   1.282192   1.412340
    H  -0.020327   2.755998   1.726008
    H   2.419740   0.072471  -1.531483
    H   1.514694  -2.711999  -0.937355
    H  -1.580642  -2.642613  -0.945666
    H  -2.246920   0.045528  -1.355726
    H  -1.540176   2.650875  -1.008322
    H   1.473714   2.652131  -1.040391
    H  -0.131495   1.122241  -2.502134
    H  -0.102196  -1.150263  -2.823554
    C  -0.015902   0.755506  -1.489744
    C  -1.350738  -0.005983  -0.753087
