30
B13C2H15
    B  -0.000174  -0.008040   1.697181
    B   1.465374   0.841055   0.840687
    B   0.000306   1.814199   0.993037
    B  -1.457535   0.829639   0.842599
    B   1.457280  -0.842284   0.842438
    B  -0.001515  -1.808533   0.990203
    B   0.858892   1.821105  -0.495719
    B   1.473333   0.000599  -0.851421
    B  -0.859011  -1.807437  -0.493955
    B  -0.860525   1.813132  -0.497014
    B  -1.470613  -0.007945  -0.849743
    B   0.000028  -0.842414  -1.683312
    B   0.005633   0.841176  -1.689466
    H  -0.008912  -0.023172   2.884592
    H  -2.424580   1.238773   1.401431
    H  -2.333437  -1.233167   1.348824
    H  -0.007463  -2.725123   1.741419
    H   2.413534  -1.282554   1.393793
    H   2.428227   1.258666   1.401128
    H  -0.004857   2.720485   1.761158
    H   2.502481  -0.015186  -1.444921
    H   1.444258  -2.655687  -0.834041
    H  -1.512304  -2.724185  -0.864580
    H  -2.503554  -0.023072  -1.435309
    H  -1.528053   2.719569  -0.876832
    H   1.516211   2.735189  -0.875582
    H   0.002164   1.258811  -2.803525
    H   0.001050  -1.282758  -2.787094
    C   0.831506  -1.787291  -0.479926
    C  -1.427744  -0.823551   0.825406
