30
B13C2H15
    B  -0.001062   0.001371   1.703882
    B   1.472764   0.849614   0.866279
    B   0.012558   1.830035   0.994647
    B  -1.454929   0.848887   0.832260
    B  -1.431563  -0.847463   0.859224
    B   1.465735  -0.841467   0.847134
    B   0.004954  -1.829577   0.987427
    B   0.858094   1.804629  -0.497243
    B   1.481105  -0.011059  -0.818309
    B   0.869893  -1.819266  -0.503070
    B  -0.838030  -1.839447  -0.491791
    B  -0.849288   1.868914  -0.453850
    B   0.018118  -0.856972  -1.690097
    H  -0.031179   0.003657   2.885504
    H  -2.488811   1.222661   1.263214
    H  -2.476771  -1.218565   1.263412
    H  -0.024183  -2.734412   1.745441
    H   2.438190  -1.263785   1.371838
    H   2.425766   1.278872   1.418398
    H  -0.015223   2.754141   1.728426
    H   2.419222   0.070888  -1.529537
    H   1.514472  -2.713870  -0.927423
    H  -1.582445  -2.635297  -0.942915
    H  -2.240883   0.052438  -1.360964
    H  -1.540032   2.642351  -1.010681
    H   1.468778   2.654425  -1.040155
    H  -0.117296   1.127250  -2.498393
    H  -0.113067  -1.149962  -2.825241
    C  -0.005963   0.751823  -1.488962
    C  -1.349783  -0.000813  -0.750922
