30
B13C2H15
    B  -0.024057   0.004198   1.694642
    B   1.472503   0.826467   0.845883
    B   0.014214   1.814320   1.003560
    B  -1.454877   0.848258   0.823308
    B  -1.461782  -0.839626   0.827970
    B   0.004157  -1.797754   1.002274
    B   0.880681   1.810495  -0.492152
    B   1.457103   0.006834  -0.869034
    B   0.873952  -1.794334  -0.495802
    B  -0.822810  -1.852946  -0.475907
    B  -0.820589   1.858404  -0.474616
    B  -0.007473  -0.837095  -1.675372
    B  -0.026281   0.853413  -1.675168
    H   0.044887  -0.062637   2.870282
    H  -2.480380   1.230460   1.266091
    H  -2.487836  -1.240176   1.251472
    H   0.080993  -2.669639   1.791525
    H   2.195058  -1.171184   1.279729
    H   2.452949   1.166243   1.410755
    H  -0.002670   2.698270   1.786825
    H   2.510216  -0.061778  -1.395979
    H   1.597634  -2.664513  -0.824404
    H  -1.517741  -2.714242  -0.879865
    H  -2.272202  -0.010375  -1.310806
    H  -1.543924   2.693826  -0.886785
    H   1.553640   2.692384  -0.898095
    H  -0.168112   1.228424  -2.785270
    H  -0.149597  -1.239773  -2.775578
    C   1.324000  -0.775106   0.771388
    C  -1.332512  -0.000820  -0.773339
