30
B13C2H15
    B   0.003365   0.089005   1.707647
    B   1.439777   0.845469   0.809951
    B  -0.021196   1.841981   0.996969
    B  -1.458346   0.836464   0.865855
    B  -1.412013  -0.850210   0.889934
    B   1.421180  -0.845507   0.842101
    B   1.480414  -0.088711  -0.850770
    B   0.852766  -1.842004  -0.516817
    B  -0.868363  -1.789752  -0.527368
    B  -0.890934   1.789706  -0.488294
    B  -1.459142  -0.000003  -0.842335
    B   0.020628  -0.836467  -1.695776
    B   0.064546   0.850165  -1.667830
    H   0.034174  -0.034972   2.880679
    H  -2.438317   1.216263   1.407817
    H  -2.317176  -1.345359   1.463553
    H   0.002235  -2.568467   1.544869
    H   2.336623  -1.293183   1.437087
    H   2.412813   1.293146   1.305168
    H   0.070898   2.802379   1.673405
    H   2.511723   0.035156  -1.410578
    H   1.484804  -2.802256  -0.775366
    H  -1.529604  -2.727348  -0.795054
    H  -2.483133  -0.000051  -1.433578
    H  -1.453287   2.727379  -0.927055
    H   1.339079   2.568289  -0.770527
    H   0.108698   1.345379  -2.738502
    H   0.000012  -1.216298  -2.815433
    C   0.747346   1.730294  -0.430974
    C   0.000429  -1.730486   0.862675
