30
B13C2H15
    B   0.017531   0.014099   1.668700
    B   1.475426   0.838474   0.783464
    B  -0.003774   1.780538   1.016629
    B  -1.486594   0.854992   0.858183
    B   1.513265  -0.878157   0.630949
    B  -0.029288  -1.762381   1.041747
    B   0.845617   1.900016  -0.488188
    B   1.562130   0.275068  -0.901856
    B  -0.916712  -1.762472  -0.495355
    B  -0.882256   1.780575  -0.504949
    B  -1.436221   0.014120  -0.849541
    B   0.210096  -0.878112  -1.625962
    B   0.059388   0.838484  -1.669439
    H  -0.045461  -0.080825   2.843537
    H  -2.468948   1.181430   1.425257
    H  -2.215528  -1.143491   1.279341
    H  -0.073637  -2.645014   1.817768
    H   2.469244  -1.369412   1.121606
    H   2.415011   1.146552   1.432378
    H  -0.033500   2.650588   1.815700
    H   2.575206   0.107945  -1.486730
    H   1.151971  -2.805868  -0.664996
    H  -1.610945  -2.645083  -0.845004
    H  -2.485103  -0.080941  -1.382490
    H  -1.589084   2.650656  -0.878768
    H   1.418890   2.878786  -0.819114
    H  -0.032688   1.146657  -2.807582
    H   0.263077  -1.369385  -2.699190
    C   0.671256  -1.878983  -0.387496
    C  -1.338368  -0.758856   0.772858
