30
B13C2H15
    B  -0.010378  -0.007091   1.703934
    B   1.450298   0.819523   0.850958
    B   0.003879   1.809733   0.990633
    B  -1.476780   0.848988   0.853337
    B  -1.478082  -0.832879   0.853975
    B  -0.001236  -1.783900   0.984310
    B   0.868690   1.793634  -0.501486
    B   1.466827  -0.004400  -0.847498
    B   0.861705  -1.759337  -0.497572
    B  -0.853390  -1.783293  -0.490916
    B  -0.856210   1.809096  -0.498603
    B  -1.480462  -0.006875  -0.843647
    B  -0.011187   0.819490  -1.681131
    H   0.065413  -0.059624   2.879102
    H  -2.431790   1.273417   1.404795
    H  -2.421429  -1.288178   1.398456
    H   0.076338  -2.700506   1.718612
    H   2.224987  -1.187153   1.262321
    H   2.430436   1.180580   1.402835
    H   0.027952   2.711738   1.750835
    H   2.483234  -0.079886  -1.434158
    H   1.545195  -2.630675  -0.892415
    H  -1.450502  -2.699914  -0.925286
    H  -2.460118  -0.059428  -1.497181
    H  -1.502327   2.711114  -0.899881
    H   1.553307   2.669370  -0.897085
    H   0.001300   1.180539  -2.805868
    H   0.019002  -1.187725  -2.557686
    C   0.004949  -0.778326  -1.556140
    C   1.350382  -0.778031   0.773907
