30
B13C2H15
    B  -0.026337  -0.000984   1.701508
    B   1.463659   0.835588   0.872972
    B   0.006956   1.813072   0.985949
    B  -1.470115   0.845274   0.848714
    B  -1.490313  -0.840914   0.861282
    B  -0.007619  -1.794891   0.988782
    B   0.874274   1.791051  -0.504637
    B   1.460813   0.010801  -0.843930
    B   0.861333  -1.765417  -0.498095
    B  -0.860667  -1.796641  -0.486486
    B  -0.850381   1.813594  -0.498762
    B  -1.485633  -0.000733  -0.828789
    B  -0.021952   0.835395  -1.703138
    H   0.084671  -0.071583   2.874296
    H  -2.425044   1.273918   1.398992
    H  -2.435525  -1.293926   1.406869
    H   0.114550  -2.700718   1.732156
    H   2.198378  -1.181816   1.272642
    H   2.452776   1.172397   1.423071
    H   0.026185   2.717245   1.745911
    H   2.474786  -0.114726  -1.429379
    H   1.568216  -2.612739  -0.905868
    H  -1.443365  -2.702592  -0.963601
    H  -2.445660  -0.070948  -1.511566
    H  -1.498700   2.717610  -0.895991
    H   1.557805   2.670329  -0.898849
    H  -0.002447   1.172162  -2.834787
    H  -0.007287  -1.182331  -2.540338
    C  -0.005639  -0.769109  -1.540271
    C   1.332282  -0.768369   0.772801
