30
B13C2H15
    B  -0.001760  -0.001316   1.700866
    B   1.464300   0.840956   0.844079
    B  -0.000820   1.817349   0.983921
    B  -1.459241   0.838079   0.845086
    B  -1.458777  -0.843518   0.852021
    B   1.464098  -0.842951   0.847994
    B  -0.001760  -1.820504   0.990394
    B   0.857237   1.808982  -0.501639
    B   1.470015   0.005449  -0.850715
    B   0.858528  -1.811643  -0.499563
    B  -0.856712  -1.811564  -0.493505
    B  -0.853277   1.806065  -0.497118
    B   0.004659  -0.824871  -1.679007
    H  -0.012734   0.001846   2.888541
    H  -2.431257   1.265790   1.378321
    H  -2.431260  -1.265049   1.390504
    H  -0.011686  -2.737711   1.742989
    H   2.427408  -1.270972   1.398361
    H   2.425889   1.273629   1.392846
    H  -0.010461   2.738352   1.730661
    H   2.484478   0.014762  -1.466042
    H   1.509929  -2.720024  -0.897571
    H  -1.526258  -2.706582  -0.891933
    H  -2.457484   0.016902  -1.437202
    H  -1.516012   2.703117  -0.899659
    H   1.500545   2.719160  -0.906733
    H  -0.009333   1.213045  -2.697067
    H  -0.010478  -1.231945  -2.795377
    C   0.004518   0.819932  -1.652458
    C  -1.533152   0.005233  -0.883462
