30
B13C2H15
    B   0.001299   0.004186   1.697704
    B   1.453393   0.841924   0.844364
    B   0.000864   1.822328   0.990769
    B  -1.457139   0.846158   0.848735
    B  -1.454211  -0.839611   0.844037
    B   1.456887  -0.841987   0.838114
    B   1.471749  -0.004162  -0.848739
    B   0.859107  -1.821174  -0.494966
    B  -0.854831  -1.817835  -0.495950
    B  -0.857127   1.817798  -0.492019
    B  -1.468423   0.000004  -0.848511
    B   0.005632  -0.846292  -1.686391
    B   0.002844   0.839760  -1.681480
    H   0.005983  -0.002198   2.885113
    H  -2.417649   1.271939   1.405210
    H  -2.409017  -1.272575   1.403473
    H   0.003081  -2.647123   1.680412
    H   2.413221  -1.272213   1.396368
    H   2.414647   1.272115   1.394136
    H   0.012758   2.740237   1.742407
    H   2.502643   0.002306  -1.437793
    H   1.515798  -2.739155  -0.860742
    H  -1.510825  -2.735164  -0.863716
    H  -2.497754   0.000012  -1.442050
    H  -1.503338   2.735082  -0.876797
    H   1.457276   2.646087  -0.838143
    H   0.009436   1.272759  -2.788065
    H   0.006867  -1.272080  -2.796456
    C   0.834740   1.789214  -0.479393
    C   0.002090  -1.790340   0.961827
