30
B13C2H15
    B   0.001240  -0.005423   1.699319
    B   1.459044   0.831021   0.842899
    B   0.001777   1.813234   0.991844
    B  -1.465468   0.840840   0.847166
    B  -1.463740  -0.840552   0.846184
    B   0.002325  -1.808664   0.986451
    B   0.864087   1.806502  -0.498686
    B   1.471111  -0.008831  -0.850147
    B   0.859186  -1.800398  -0.495833
    B  -0.853770  -1.807578  -0.495413
    B  -0.858741   1.812123  -0.497664
    B  -1.471785  -0.005420  -0.851927
    B   0.000459   0.831200  -1.685113
    H   0.015008  -0.015987   2.886911
    H  -2.427739   1.265911   1.403238
    H  -2.422609  -1.273251   1.400235
    H   0.017610  -2.725208   1.739084
    H   2.340625  -1.221681   1.339378
    H   2.427313   1.242611   1.397747
    H   0.007792   2.724291   1.753630
    H   2.498375  -0.026921  -1.442532
    H   1.521873  -2.705910  -0.878783
    H  -1.497679  -2.724254  -0.885160
    H  -2.493602  -0.015996  -1.457103
    H  -1.515216   2.723320  -0.883972
    H   1.531450   2.710103  -0.884341
    H   0.004515   1.242828  -2.801062
    H   0.011696  -1.221821  -2.696852
    C   0.004350  -0.818098  -1.649966
    C   1.430513  -0.817992   0.821921
