30
B13C2H15
    B  -0.030109   0.007205   1.676750
    B   1.477395   0.834177   0.852975
    B   0.021397   1.809754   1.016732
    B  -1.448881   0.852212   0.768259
    B  -1.457919  -0.849013   0.782150
    B   0.011847  -1.798464   1.011796
    B   0.891037   1.809851  -0.489866
    B   1.436792   0.007302  -0.864630
    B   0.881981  -1.798529  -0.495726
    B  -0.798447  -1.934384  -0.460822
    B  -0.793396   1.949218  -0.457901
    B  -0.051811  -0.849288  -1.653838
    B  -0.059088   0.852077  -1.638480
    H   0.028513  -0.060470   2.852629
    H  -2.483984   1.204185   1.213552
    H  -2.492154  -1.218064   1.213055
    H   0.094402  -2.639836   1.832833
    H   2.200569  -1.162872   1.270241
    H   2.459919   1.162862   1.419833
    H   0.005264   2.669594   1.826884
    H   2.484331  -0.060454  -1.402023
    H   1.633914  -2.640045  -0.835261
    H  -1.482665  -2.807139  -0.855563
    H  -2.296735  -0.008458  -1.325999
    H  -1.505964   2.792438  -0.869092
    H   1.584610   2.669645  -0.908953
    H  -0.191912   1.203758  -2.757544
    H  -0.196174  -1.217953  -2.765016
    C   1.326130  -0.772441   0.765423
    C  -1.359720  -0.006868  -0.784866
