30
B13C2H15
    B   0.030591   0.005655   1.682639
    B   1.478560   0.845813   0.800869
    B  -0.003389   1.796117   1.007364
    B  -1.479124   0.845667   0.853641
    B   1.505354  -0.856755   0.730002
    B  -0.016477  -1.762581   1.025399
    B   0.846154   1.880138  -0.488557
    B   1.525055   0.156485  -0.880585
    B  -0.896211  -1.762453  -0.498421
    B  -0.873934   1.796200  -0.500667
    B  -1.441356   0.005622  -0.868187
    B   0.119580  -0.856755  -1.668668
    B   0.046360   0.845826  -1.680886
    H  -0.054478  -0.079167   2.856920
    H  -2.461831   1.172480   1.420605
    H  -2.206123  -1.157837   1.275363
    H  -0.065944  -2.680622   1.758563
    H   2.446173  -1.368560   1.227235
    H   2.421348   1.190766   1.426684
    H  -0.033644   2.668873   1.803417
    H   2.539335   0.000431  -1.466279
    H   1.232875  -2.691567  -0.711692
    H  -1.555978  -2.680446  -0.822114
    H  -2.500838  -0.079097  -1.381717
    H  -1.578387   2.668933  -0.872701
    H   1.459582   2.825831  -0.842475
    H  -0.023792   1.191018  -2.810219
    H   0.159348  -1.368838  -2.731923
    C   0.715381  -1.790711  -0.412944
    C  -1.334188  -0.760469   0.770793
