30
B13C2H15
    B   0.011848   0.018165   1.663452
    B   1.474289   0.834005   0.775620
    B  -0.004140   1.774081   1.021109
    B  -1.490612   0.859742   0.860598
    B   1.514941  -0.887020   0.585804
    B  -0.034252  -1.761734   1.048406
    B   0.845795   1.907850  -0.488267
    B   1.573955   0.325418  -0.908620
    B  -0.925001  -1.761860  -0.494396
    B  -0.886340   1.774105  -0.506897
    B  -1.434675   0.018214  -0.841904
    B   0.250350  -0.886999  -1.604818
    B   0.065435   0.833968  -1.664531
    H  -0.041137  -0.082579   2.838276
    H  -2.472833   1.185945   1.427728
    H  -2.218528  -1.138490   1.280788
    H  -0.076718  -2.629435   1.841324
    H   2.478471  -1.369701   1.070860
    H   2.413022   1.125366   1.433280
    H  -0.032902   2.643451   1.820981
    H   2.586786   0.154185  -1.493304
    H   1.116005  -2.851588  -0.644254
    H  -1.632930  -2.629525  -0.854146
    H  -2.478554  -0.082682  -1.383477
    H  -1.593381   2.643521  -0.881910
    H   1.401757   2.899904  -0.809256
    H  -0.034736   1.125330  -2.806327
    H   0.311972  -1.369607  -2.681825
    C   0.651745  -1.914013  -0.376254
    C  -1.339633  -0.758017   0.773419
