30
B13C2H15
    B   0.003902   0.000000   1.688711
    B   1.464763   0.843456   0.774805
    B  -0.018320   1.797578   1.008269
    B  -1.477977   0.842310   0.853383
    B  -1.477977  -0.842310   0.853383
    B   1.464763  -0.843456   0.774805
    B  -0.018320  -1.797578   1.008269
    B   1.484224   0.000000  -0.856875
    B  -0.882300  -1.797563  -0.488193
    B  -0.882300   1.797563  -0.488193
    B  -1.460417   0.000000  -0.847644
    B   0.061381  -0.843459  -1.655867
    B   0.061381   0.843459  -1.655867
    H   0.044922   0.000000   2.870463
    H  -2.432864   1.270796   1.404650
    H  -2.432864  -1.270796   1.404650
    H   0.077835  -2.741378   1.707035
    H   2.423551  -1.294894   1.294003
    H   2.423551   1.294894   1.294003
    H   0.077835   2.741378   1.707035
    H   2.505214   0.000000  -1.446370
    H   1.323363  -2.606439  -0.764000
    H  -1.439389  -2.741357  -0.920841
    H  -2.463360   0.000000  -1.474009
    H  -1.439389   2.741357  -0.920841
    H   1.323363   2.606439  -0.764000
    H   0.091169   1.294909  -2.745795
    H   0.091169  -1.294909  -2.745795
    C   0.751544   1.751576  -0.433857
    C   0.751544  -1.751576  -0.433857
