30
B13C2H15
    B  -0.000803  -0.003215   1.700676
    B   1.479236   0.844704   0.849397
    B   0.017459   1.832064   1.000923
    B  -1.451536   0.869159   0.852743
    B  -1.432724  -0.831649   0.806904
    B   1.462473  -0.845633   0.869668
    B   0.009774  -1.823833   0.989630
    B   0.863133   1.800869  -0.492963
    B   1.473853  -0.009869  -0.816960
    B   0.877151  -1.818583  -0.503086
    B  -0.829995  -1.867084  -0.493077
    B  -0.834293   1.910155  -0.445152
    B   0.039127  -0.868222  -1.690838
    H  -0.039219  -0.002166   2.882103
    H  -2.486052   1.229433   1.291889
    H  -2.486285  -1.194237   1.198073
    H  -0.030757  -2.722312   1.755190
    H   2.430166  -1.266732   1.403519
    H   2.437346   1.279005   1.389502
    H  -0.009179   2.748284   1.745549
    H   2.404396   0.077376  -1.537778
    H   1.532487  -2.704254  -0.930453
    H  -1.571210  -2.667708  -0.939756
    H  -2.245274   0.036007  -1.356138
    H  -1.530432   2.680693  -0.998522
    H   1.481551   2.632031  -1.056274
    H  -0.189477   1.105744  -2.481638
    H  -0.075560  -1.146139  -2.831184
    C  -0.058039   0.747296  -1.469232
    C  -1.348174  -0.021183  -0.755185
