30
B13C2H15
    B   0.003707   0.091372   1.708442
    B   1.437199   0.845684   0.808937
    B  -0.021533   1.845971   0.997130
    B  -1.456983   0.837080   0.865359
    B  -1.409226  -0.849635   0.890715
    B   1.419001  -0.845689   0.840383
    B   1.481290  -0.091153  -0.850889
    B   0.852760  -1.845937  -0.517167
    B  -0.869066  -1.790858  -0.528013
    B  -0.891837   1.790792  -0.488566
    B  -1.458409  -0.000004  -0.841954
    B   0.020859  -0.837112  -1.694409
    B   0.066619   0.849602  -1.665785
    H   0.035310  -0.035088   2.881147
    H  -2.437899   1.214159   1.407636
    H  -2.314297  -1.343993   1.465331
    H   0.001779  -2.570805   1.544739
    H   2.334881  -1.290813   1.436805
    H   2.411682   1.290791   1.303862
    H   0.070209   2.805186   1.675159
    H   2.512698   0.035236  -1.409859
    H   1.485970  -2.805036  -0.776794
    H  -1.532859  -2.726238  -0.797051
    H  -2.482428  -0.000009  -1.433118
    H  -1.456671   2.726224  -0.928876
    H   1.338776   2.570669  -0.770885
    H   0.111699   1.343980  -2.736897
    H   0.000022  -1.214197  -2.815046
    C   0.746571   1.733162  -0.430805
    C   0.000175  -1.733340   0.861925
