30
B13C2H15
    B   0.024517   0.001331   1.676322
    B   1.487831   0.842482   0.809340
    B   0.004681   1.781413   1.007711
    B  -1.488649  -0.823144   0.859466
    B   1.488176  -0.856280   0.722257
    B  -0.035693  -1.789586   1.023135
    B   0.844294   1.876102  -0.487512
    B   1.521068   0.164633  -0.878218
    B  -0.903610  -1.789740  -0.480603
    B  -0.870247   1.781788  -0.508025
    B  -1.439693   0.001375  -0.859540
    B   0.118577  -0.856217  -1.649749
    B   0.043294   0.842470  -1.693246
    H  -0.048622   0.044597   2.853441
    H  -2.193886   1.172506   1.268451
    H  -2.467244  -1.166094   1.424338
    H   0.032632  -2.711612   1.753576
    H   2.425867  -1.351379   1.242429
    H   2.441858   1.208309   1.403354
    H  -0.119561   2.637617   1.808442
    H   2.535976   0.015103  -1.464347
    H   1.256367  -2.674966  -0.725418
    H  -1.501901  -2.711881  -0.904938
    H  -2.495508   0.044603  -1.385078
    H  -1.625542   2.638205  -0.800908
    H   1.432414   2.841977  -0.827129
    H   0.006441   1.208013  -2.816585
    H   0.136936  -1.351525  -2.721818
    C   0.713598  -1.793310  -0.411840
    C  -1.324371   0.773213   0.764151
