30
B13C2H15
    B  -0.003491  -0.008915   1.694961
    B   1.451304   0.814820   0.839606
    B   0.001760   1.804234   0.994324
    B  -1.450286   0.839988   0.844610
    B  -1.447165  -0.833847   0.848662
    B   0.004109  -1.796703   0.991403
    B   0.859817   1.800605  -0.497333
    B   1.459704  -0.007750  -0.849252
    B   0.860982  -1.793602  -0.487287
    B  -0.830225  -1.812372  -0.480759
    B  -0.840272   1.816362  -0.486421
    B   0.009365  -0.830609  -1.673888
    B  -0.017407   0.842344  -1.686571
    H   0.012773  -0.037733   2.872453
    H  -2.430649   1.251131   1.358471
    H  -2.425247  -1.253124   1.358142
    H   0.026528  -2.695666   1.751304
    H   2.227975  -1.176279   1.292926
    H   2.418471   1.203180   1.396522
    H  -0.008699   2.702060   1.758980
    H   2.488144  -0.035813  -1.423388
    H   1.532529  -2.690685  -0.848316
    H  -1.491100  -2.706249  -0.870139
    H  -2.362564   0.001661  -1.384553
    H  -1.520752   2.696440  -0.877646
    H   1.520680   2.694755  -0.890927
    H  -0.064166   1.249085  -2.793695
    H  -0.035094  -1.251193  -2.775346
    C   1.373400  -0.792118   0.798135
    C  -1.431282   0.005992  -0.837446
