30
B13C2H15
    B   0.016908   0.006491   1.663680
    B   1.486927   0.833454   0.786155
    B   0.004129   1.764564   1.019095
    B  -1.489812  -0.819168   0.860354
    B   1.498238  -0.878461   0.618958
    B  -0.049717  -1.791899   1.042068
    B   0.841519   1.901888  -0.485707
    B   1.562834   0.294334  -0.902392
    B  -0.927458  -1.791559  -0.477609
    B  -0.880321   1.764315  -0.512776
    B  -1.432399   0.006528  -0.846163
    B   0.213333  -0.878577  -1.606928
    B   0.062906   0.833365  -1.680352
    H  -0.039971   0.041686   2.842037
    H  -2.206618   1.185617   1.272490
    H  -2.471021  -1.154076   1.426711
    H   0.018549  -2.674753   1.819432
    H   2.453049  -1.351540   1.130379
    H   2.435570   1.160920   1.409854
    H  -0.116648   2.620743   1.820225
    H   2.574334   0.122309  -1.486701
    H   1.166733  -2.797305  -0.673475
    H  -1.566381  -2.674500  -0.925519
    H  -2.481203   0.042198  -1.386293
    H  -1.634750   2.620141  -0.809168
    H   1.383934   2.903131  -0.799129
    H  -0.002561   1.160952  -2.813732
    H   0.247377  -1.351669  -2.689529
    C   0.667116  -1.884749  -0.385240
    C  -1.334598   0.785620   0.770731
