30
B13C2H15
    B   0.003796   0.055693   1.701941
    B   1.440500   0.842859   0.826849
    B  -0.016671   1.841692   0.995858
    B  -1.459893   0.842403   0.864446
    B  -1.426452  -0.840738   0.863864
    B   1.435923  -0.842872   0.834813
    B   1.475527  -0.055315  -0.847311
    B   0.854152  -1.841296  -0.512444
    B  -0.863899  -1.803306  -0.521254
    B  -0.883224   1.803074  -0.487543
    B  -1.464721   0.000009  -0.845432
    B   0.018593  -0.842495  -1.696625
    B   0.034784   0.840681  -1.667480
    H   0.027551  -0.058132   2.876156
    H  -2.435448   1.225158   1.412460
    H  -2.325850  -1.342165   1.441501
    H   0.001911  -2.540568   1.560634
    H   2.346199  -1.300919   1.429798
    H   2.411126   1.300744   1.317414
    H   0.074737   2.802598   1.671037
    H   2.504347   0.058473  -1.413749
    H   1.484998  -2.801841  -0.771196
    H  -1.511999  -2.750383  -0.786179
    H  -2.488855   0.000013  -1.436441
    H  -1.436561   2.750262  -0.916360
    H   1.352853   2.540014  -0.778898
    H   0.085079   1.342034  -2.735236
    H   0.005138  -1.225215  -2.815494
    C   0.754422   1.707879  -0.433426
    C   0.001936  -1.708341   0.869756
