30
B13C2H15
    B   0.004241   0.000000   1.694146
    B   1.459552   0.842535   0.832711
    B   0.001775   1.818645   0.987753
    B  -1.460054   0.843859   0.844159
    B  -1.460054  -0.843859   0.844159
    B   1.459552  -0.842535   0.832711
    B   0.001775  -1.818645   0.987753
    B   1.474321   0.000000  -0.852006
    B  -0.855339  -1.817510  -0.495626
    B  -0.855339   1.817510  -0.495626
    B  -1.466064   0.000000  -0.852193
    B   0.009652  -0.842669  -1.680471
    B   0.009652   0.842669  -1.680471
    H   0.012535   0.000000   2.882369
    H  -2.420393   1.272311   1.399198
    H  -2.420393  -1.272311   1.399198
    H   0.013331  -2.735484   1.740245
    H   2.422527  -1.272790   1.379522
    H   2.422527   1.272790   1.379522
    H   0.013331   2.735484   1.740245
    H   2.502280   0.000000  -1.444737
    H   1.456943  -2.651678  -0.841307
    H  -1.500933  -2.734566  -0.882053
    H  -2.491226   0.000000  -1.452900
    H  -1.500933   2.734566  -0.882053
    H   1.456943   2.651678  -0.841307
    H   0.018087   1.272902  -2.787825
    H   0.018087  -1.272902  -2.787825
    C   0.836809   1.793243  -0.482916
    C   0.836809  -1.793243  -0.482916
