30
B13C2H15
    B   0.003639   0.024581   1.693339
    B   1.431947   0.840350   0.834324
    B  -0.005374   1.830721   0.987548
    B  -1.451127   0.845708   0.856773
    B  -1.431950  -0.836624   0.844821
    B   1.437815  -0.840230   0.823866
    B   1.468398  -0.024298  -0.843475
    B   0.852822  -1.829716  -0.498695
    B  -0.852244  -1.810254  -0.504278
    B  -0.862985   1.809954  -0.485614
    B  -1.461625  -0.000047  -0.843990
    B   0.015973  -0.845924  -1.685182
    B   0.015235   0.836629  -1.662523
    H   0.022424  -0.029204   2.870436
    H  -2.411814   1.251073   1.410090
    H  -2.351109  -1.305171   1.414949
    H   0.005614  -2.538423   1.585274
    H   2.365687  -1.285581   1.397457
    H   2.392615   1.285571   1.351197
    H   0.051366   2.768569   1.695754
    H   2.497368   0.029487  -1.415295
    H   1.494647  -2.767354  -0.804072
    H  -1.499312  -2.741440  -0.816987
    H  -2.484170   0.000021  -1.433819
    H  -1.456920   2.741214  -0.890119
    H   1.376207   2.537326  -0.788482
    H   0.049277   1.305189  -2.743599
    H   0.014494  -1.251149  -2.793874
    C   0.769715   1.717148  -0.440644
    C   0.003387  -1.718129   0.886274
