30
B13C2H15
    B   0.000736  -0.003034   1.701087
    B   1.477497   0.846129   0.858827
    B   0.016197   1.831133   0.997274
    B  -1.452484   0.860753   0.845619
    B  -1.431389  -0.837751   0.828385
    B   1.463996  -0.844139   0.862998
    B   0.009120  -1.826617   0.987649
    B   0.862495   1.802977  -0.493948
    B   1.476986  -0.008959  -0.818566
    B   0.874847  -1.820679  -0.502855
    B  -0.834470  -1.857564  -0.493013
    B  -0.840421   1.893736  -0.451600
    B   0.028745  -0.863792  -1.687522
    H  -0.040653   0.000217   2.882556
    H  -2.484171   1.228561   1.286082
    H  -2.479391  -1.204138   1.230782
    H  -0.031142  -2.728812   1.748983
    H   2.431626  -1.266597   1.396445
    H   2.433521   1.281491   1.401660
    H  -0.017847   2.753320   1.734279
    H   2.410325   0.076190  -1.536025
    H   1.523147  -2.707862  -0.937625
    H  -1.574797  -2.658072  -0.941984
    H  -2.246583   0.040162  -1.355567
    H  -1.534900   2.667822  -1.002668
    H   1.480310   2.641002  -1.047733
    H  -0.158066   1.113348  -2.493886
    H  -0.089181  -1.147834  -2.826364
    C  -0.035930   0.752824  -1.480619
    C  -1.348980  -0.013815  -0.755119
