30
B13C2H15
    B   0.007045   0.021537   1.663212
    B   1.473485   0.830758   0.774260
    B  -0.005591   1.772187   1.023458
    B  -1.493621   0.863019   0.862429
    B   1.519272  -0.890924   0.567555
    B  -0.035351  -1.759185   1.050961
    B   0.844609   1.909879  -0.487593
    B   1.576933   0.336781  -0.910362
    B  -0.927846  -1.759136  -0.494834
    B  -0.889112   1.772166  -0.506867
    B  -1.436845   0.021577  -0.837689
    B   0.268405  -0.891042  -1.599464
    B   0.066248   0.830682  -1.663133
    H  -0.042990  -0.083898   2.837811
    H  -2.475965   1.188578   1.429689
    H  -2.218439  -1.137293   1.280825
    H  -0.079630  -2.623179   1.847956
    H   2.487195  -1.371883   1.045766
    H   2.412263   1.117982   1.433674
    H  -0.031834   2.642448   1.822492
    H   2.590650   0.170755  -1.495583
    H   1.101586  -2.868408  -0.635923
    H  -1.640216  -2.623108  -0.855015
    H  -2.479161  -0.083806  -1.381540
    H  -1.594240   2.642382  -0.883716
    H   1.394379   2.906569  -0.804964
    H  -0.035399   1.117878  -2.805856
    H   0.338234  -1.371951  -2.676835
    C   0.645727  -1.925140  -0.372774
    C  -1.339791  -0.756225   0.773516
