30
B13C2H15
    B  -0.001594  -0.002447   1.701945
    B   1.482045   0.844345   0.845922
    B   0.016807   1.831900   0.999905
    B  -1.450148   0.869885   0.857753
    B  -1.434810  -0.829948   0.804246
    B   1.462232  -0.846619   0.874074
    B   0.008399  -1.822729   0.988361
    B   0.862763   1.799130  -0.494224
    B   1.477959  -0.010042  -0.814371
    B   0.877281  -1.817676  -0.502848
    B  -0.830769  -1.861343  -0.495405
    B  -0.835603   1.906222  -0.446210
    B   0.049735  -0.868060  -1.694477
    H  -0.037612  -0.003523   2.883408
    H  -2.483131   1.230567   1.300358
    H  -2.488239  -1.194615   1.193971
    H  -0.031197  -2.723482   1.751262
    H   2.427641  -1.269694   1.410428
    H   2.439690   1.280169   1.385708
    H  -0.006729   2.749296   1.743099
    H   2.406367   0.081867  -1.537490
    H   1.529417  -2.707543  -0.926629
    H  -1.571020  -2.662443  -0.942979
    H  -2.248503   0.036003  -1.352885
    H  -1.530672   2.677886  -0.999453
    H   1.478293   2.632089  -1.057981
    H  -0.199646   1.106592  -2.480545
    H  -0.065046  -1.150505  -2.833727
    C  -0.064788   0.744276  -1.469673
    C  -1.349982  -0.019558  -0.754012
