30
B13C2H15
    B  -0.030323   0.007138   1.676021
    B   1.478656   0.836240   0.854235
    B   0.020848   1.809691   1.016448
    B  -1.446273   0.850233   0.772531
    B  -1.457610  -0.849344   0.784517
    B   0.011200  -1.799573   1.010639
    B   0.889841   1.810746  -0.489974
    B   1.436086   0.006848  -0.864195
    B   0.880540  -1.800690  -0.495569
    B  -0.799591  -1.930867  -0.461177
    B  -0.795903   1.944576  -0.458595
    B  -0.049384  -0.851541  -1.656723
    B  -0.056025   0.848153  -1.636426
    H   0.026403  -0.061208   2.851868
    H  -2.480026   1.204119   1.219470
    H  -2.491820  -1.219242   1.214477
    H   0.094770  -2.639798   1.832497
    H   2.198830  -1.162081   1.265838
    H   2.461198   1.162146   1.422203
    H   0.005420   2.673031   1.822745
    H   2.482512  -0.059223  -1.403782
    H   1.634125  -2.641564  -0.832446
    H  -1.486368  -2.800851  -0.857504
    H  -2.296211  -0.003972  -1.325984
    H  -1.509982   2.785096  -0.872248
    H   1.580674   2.673316  -0.907401
    H  -0.182967   1.204242  -2.754893
    H  -0.194573  -1.221232  -2.767280
    C   1.324577  -0.770011   0.762655
    C  -1.359481  -0.004379  -0.784416
