30
B13C2H15
    B   0.013211   0.009096   1.691335
    B   1.473710   0.839768   0.830079
    B   0.000347   1.792035   0.995145
    B  -1.451323  -0.813900   0.838452
    B   1.459612  -0.837569   0.815553
    B  -0.010462  -1.795369   0.992428
    B   0.845070   1.834783  -0.487935
    B   1.479832   0.022717  -0.854767
    B  -0.865418  -1.794501  -0.487184
    B  -0.861856   1.791050  -0.497965
    B  -1.457650   0.009148  -0.857775
    B   0.023998  -0.837791  -1.671763
    B   0.018816   0.839526  -1.691091
    H  -0.040471   0.021782   2.867920
    H  -2.215373   1.156225   1.279961
    H  -2.417773  -1.198367   1.396565
    H   0.022052  -2.725629   1.711095
    H   2.396671  -1.324423   1.339930
    H   2.429393   1.241058   1.394641
    H  -0.075899   2.666841   1.779769
    H   2.498930  -0.049530  -1.442816
    H   1.345654  -2.556472  -0.777175
    H  -1.471564  -2.724713  -0.874769
    H  -2.503678   0.021977  -1.399192
    H  -1.579504   2.665698  -0.824687
    H   1.472580   2.764682  -0.850440
    H   0.007685   1.240891  -2.800983
    H   0.038429  -1.324751  -2.745424
    C   0.763775  -1.712340  -0.441211
    C  -1.338793   0.778076   0.773759
