30
B13C2H15
    B   0.000762   0.005016   1.707380
    B   1.469958   0.844204   0.866608
    B   0.006610   1.825482   0.988035
    B  -1.455588   0.837352   0.837412
    B  -1.436244  -0.858637   0.890519
    B   1.466977  -0.844091   0.854278
    B   0.007377  -1.827481   0.984922
    B   0.860814   1.803315  -0.495696
    B   1.495698  -0.011576  -0.818756
    B   0.860890  -1.815285  -0.505878
    B  -0.848216  -1.823224  -0.490415
    B  -0.857757   1.830929  -0.473352
    B   0.016436  -0.837459  -1.690738
    H  -0.021097   0.014487   2.889316
    H  -2.490658   1.231524   1.247584
    H  -2.476104  -1.236656   1.301914
    H  -0.016776  -2.744250   1.729740
    H   2.439334  -1.271138   1.374757
    H   2.418797   1.284045   1.418153
    H  -0.018324   2.754112   1.716044
    H   2.437965   0.055099  -1.526215
    H   1.499814  -2.712715  -0.932792
    H  -1.600654  -2.602497  -0.956908
    H  -2.246608   0.047952  -1.348661
    H  -1.547686   2.612551  -1.019746
    H   1.443695   2.680699  -1.026034
    H  -0.073287   1.143057  -2.517853
    H  -0.122974  -1.150123  -2.820101
    C   0.032473   0.763561  -1.510091
    C  -1.356487   0.001749  -0.735896
