30
B13C2H15
    B   0.000502  -0.005544   1.699427
    B   1.456923   0.829984   0.843449
    B   0.000809   1.812964   0.994172
    B  -1.456764   0.840660   0.848017
    B  -1.454868  -0.839862   0.849710
    B   0.001958  -1.811352   0.992220
    B   0.859447   1.811256  -0.496997
    B   1.468983  -0.005149  -0.849413
    B   0.859995  -1.809625  -0.492443
    B  -0.846266  -1.816901  -0.488905
    B  -0.851052   1.817391  -0.491894
    B   0.006586  -0.838464  -1.684219
    B  -0.004599   0.841171  -1.690407
    H   0.003524  -0.015036   2.885374
    H  -2.425420   1.262767   1.392444
    H  -2.421928  -1.264772   1.393318
    H   0.009314  -2.720656   1.752623
    H   2.326715  -1.218048   1.346224
    H   2.422339   1.242861   1.400513
    H  -0.002718   2.721333   1.757501
    H   2.497859  -0.014324  -1.439092
    H   1.522575  -2.718607  -0.866489
    H  -1.504132  -2.725946  -0.872063
    H  -2.458207   0.002068  -1.429186
    H  -1.515897   2.722107  -0.875775
    H   1.519431   2.718705  -0.882825
    H  -0.017010   1.261613  -2.802130
    H  -0.005578  -1.263511  -2.793467
    C   1.424422  -0.819628   0.824999
    C  -1.527802   0.002547  -0.887158
