30
B13C2H15
    B   0.000000  -0.009726   1.692746
    B   1.464112   0.853804   0.828582
    B   0.000000   1.822274   0.994682
    B  -1.464112   0.853804   0.828582
    B  -1.482259  -0.828280   0.807742
    B   1.482259  -0.828280   0.807742
    B   0.000000  -1.783584   1.035853
    B   0.857803   1.849589  -0.499250
    B   1.478891   0.075673  -0.855514
    B  -0.857803   1.849589  -0.499250
    B  -1.478891   0.075673  -0.855514
    B   0.000000  -0.833722  -1.674934
    B   0.000000   0.848868  -1.680502
    H   0.000000  -0.037129   2.874950
    H  -2.428117   1.214059   1.412460
    H  -2.414239  -1.361845   1.299099
    H   0.000000  -2.797141   1.631755
    H   2.414239  -1.361845   1.299099
    H   2.428117   1.214059   1.412460
    H   0.000000   2.695873   1.789763
    H   2.478410  -0.094296  -1.460459
    H   1.266799  -2.584160  -0.788194
    H  -1.266799  -2.584160  -0.788194
    H  -2.478410  -0.094296  -1.460459
    H  -1.536862   2.733652  -0.891425
    H   1.536862   2.733652  -0.891425
    H   0.000000   1.183164  -2.815823
    H   0.000000  -1.413963  -2.701062
    C   0.771862  -1.695654  -0.426025
    C  -0.771862  -1.695654  -0.426025
