30
B13C2H15
    B  -0.028284   0.009407   1.686170
    B   1.480591   0.837228   0.851330
    B   0.018241   1.812671   1.011687
    B  -1.450233   0.850171   0.802448
    B  -1.462168  -0.847137   0.810373
    B   0.006708  -1.801812   1.005798
    B   0.885482   1.812013  -0.489509
    B   1.446672   0.009249  -0.869759
    B   0.873831  -1.801374  -0.499709
    B  -0.814461  -1.896036  -0.470577
    B  -0.808404   1.900406  -0.467336
    B  -0.025949  -0.846671  -1.672840
    B  -0.029944   0.848683  -1.653652
    H   0.053182  -0.062037   2.860927
    H  -2.485621   1.217741   1.234670
    H  -2.500693  -1.229710   1.219560
    H   0.104720  -2.654242   1.813996
    H   2.194750  -1.163051   1.272198
    H   2.463669   1.163222   1.418807
    H   0.004240   2.686810   1.806624
    H   2.504959  -0.065218  -1.385449
    H   1.622394  -2.654073  -0.818930
    H  -1.515446  -2.752235  -0.873463
    H  -2.287120  -0.004707  -1.316229
    H  -1.533120   2.730858  -0.885240
    H   1.563944   2.688504  -0.899206
    H  -0.176675   1.215166  -2.766498
    H  -0.188587  -1.229168  -2.777149
    C   1.321441  -0.769666   0.766151
    C  -1.348976  -0.004992  -0.777661
