30
B13C2H15
    B  -0.001278  -0.002586   1.701520
    B   1.481050   0.844411   0.846907
    B   0.016993   1.831934   1.000280
    B  -1.450705   0.869570   0.855603
    B  -1.434114  -0.830508   0.805023
    B   1.462666  -0.846490   0.872665
    B   0.008981  -1.823011   0.988946
    B   0.862974   1.799904  -0.493785
    B   1.476892  -0.009999  -0.815185
    B   0.877150  -1.817709  -0.503007
    B  -0.830411  -1.863621  -0.494474
    B  -0.835025   1.907642  -0.445983
    B   0.045293  -0.867717  -1.693021
    H  -0.037386  -0.002998   2.882981
    H  -2.484847   1.229841   1.295782
    H  -2.487685  -1.194264   1.195180
    H  -0.030454  -2.723050   1.752686
    H   2.429073  -1.268912   1.407669
    H   2.438727   1.279476   1.387207
    H  -0.006758   2.748294   1.744709
    H   2.406500   0.079530  -1.536954
    H   1.531088  -2.706154  -0.926895
    H  -1.571571  -2.663837  -0.942028
    H  -2.247296   0.036347  -1.354500
    H  -1.530684   2.678709  -0.999256
    H   1.478803   2.632766  -1.057344
    H  -0.196654   1.106459  -2.480647
    H  -0.069797  -1.149143  -2.832490
    C  -0.062980   0.745274  -1.469299
    C  -1.349405  -0.020158  -0.754758
