30
B13C2H15
    B   0.000000  -0.012708   1.690200
    B   1.467541   0.853671   0.826682
    B   0.000000   1.817469   0.997677
    B  -1.467541   0.853671   0.826682
    B  -1.484275  -0.831017   0.795603
    B   1.484275  -0.831017   0.795603
    B   0.000000  -1.780530   1.038462
    B   0.858361   1.850668  -0.499769
    B   1.480019   0.089004  -0.857127
    B  -0.858361   1.850668  -0.499769
    B  -1.480019   0.089004  -0.857127
    B   0.000000  -0.837305  -1.664915
    B   0.000000   0.848216  -1.680386
    H   0.000000  -0.041973   2.872347
    H  -2.432931   1.210740   1.409583
    H  -2.418203  -1.357674   1.290743
    H   0.000000  -2.784332   1.650644
    H   2.418203  -1.357674   1.290743
    H   2.432931   1.210740   1.409583
    H   0.000000   2.690815   1.793012
    H   2.476890  -0.088907  -1.464207
    H   1.265129  -2.595971  -0.785326
    H  -1.265129  -2.595971  -0.785326
    H  -2.476890  -0.088907  -1.464207
    H  -1.529139   2.743443  -0.886376
    H   1.529139   2.743443  -0.886376
    H   0.000000   1.179849  -2.816138
    H   0.000000  -1.411650  -2.694514
    C   0.769643  -1.707883  -0.422272
    C  -0.769643  -1.707883  -0.422272
