30
B13C2H15
    B   0.006326   0.009502   1.665278
    B   1.478802   0.823625   0.786212
    B   0.000745   1.758168   1.024396
    B  -1.492906  -0.810781   0.861871
    B   1.513463  -0.892902   0.572270
    B  -0.054161  -1.780040   1.049918
    B   0.841021   1.903787  -0.485515
    B   1.570553   0.330645  -0.906693
    B  -0.936258  -1.780090  -0.477985
    B  -0.886740   1.758146  -0.512872
    B  -1.438889   0.009554  -0.838075
    B   0.261286  -0.892954  -1.596769
    B   0.058584   0.823569  -1.673731
    H  -0.044240   0.040688   2.844287
    H  -2.216061   1.196736   1.279431
    H  -2.473281  -1.149709   1.427858
    H   0.014358  -2.658482   1.833013
    H   2.481895  -1.362176   1.061490
    H   2.425699   1.146860   1.415702
    H  -0.114372   2.618918   1.821797
    H   2.585526   0.175981  -1.492678
    H   1.127709  -2.845177  -0.650997
    H  -1.580254  -2.658505  -0.928812
    H  -2.485258   0.040625  -1.383739
    H  -1.634830   2.618949  -0.811818
    H   1.376863   2.909840  -0.794843
    H  -0.013169   1.146793  -2.808513
    H   0.321961  -1.362246  -2.680050
    C   0.651419  -1.914997  -0.376027
    C  -1.345790   0.795674   0.777052
