30
B13C2H15
    B   0.003094   0.013370   1.692700
    B   1.438458   0.840735   0.838683
    B   0.000373   1.825235   0.987861
    B  -1.449964   0.847387   0.852080
    B  -1.440253  -0.836363   0.842238
    B   1.444703  -0.840638   0.827536
    B   1.467965  -0.013197  -0.844063
    B   0.856141  -1.824080  -0.493911
    B  -0.851330  -1.813372  -0.496861
    B  -0.856255   1.813182  -0.488398
    B  -1.462335  -0.000031  -0.844663
    B   0.012345  -0.847625  -1.681829
    B   0.008683   0.836468  -1.668450
    H   0.015740  -0.015362   2.872962
    H  -2.407085   1.264569   1.406850
    H  -2.376048  -1.284438   1.406440
    H   0.004895  -2.562278   1.603922
    H   2.385757  -1.277156   1.391196
    H   2.396943   1.277178   1.372197
    H   0.035341   2.750452   1.717940
    H   2.496632   0.015483  -1.422651
    H   1.505839  -2.749229  -0.828995
    H  -1.501782  -2.735709  -0.836964
    H  -2.486445   0.000023  -1.435277
    H  -1.475686   2.735543  -0.882148
    H   1.392034   2.561108  -0.798469
    H   0.029193   1.284606  -2.760958
    H   0.013829  -1.264757  -2.788146
    C   0.796014   1.745161  -0.455966
    C   0.003200  -1.746265   0.916599
