30
B13C2H15
    B   0.003842   0.000000   1.688494
    B   1.465120   0.843693   0.773432
    B  -0.018213   1.797303   1.008358
    B  -1.478485   0.842353   0.853652
    B  -1.478485  -0.842353   0.853652
    B   1.465120  -0.843693   0.773432
    B  -0.018213  -1.797303   1.008358
    B   1.485688   0.000000  -0.857724
    B  -0.882322  -1.797320  -0.488324
    B  -0.882322   1.797320  -0.488324
    B  -1.460298   0.000000  -0.847482
    B   0.062759  -0.843691  -1.655476
    B   0.062759   0.843691  -1.655476
    H   0.046893   0.000000   2.870172
    H  -2.433307   1.270965   1.404906
    H  -2.433307  -1.270965   1.404906
    H   0.076804  -2.739837   1.708991
    H   2.423836  -1.294309   1.293465
    H   2.423836   1.294309   1.293465
    H   0.076804   2.739837   1.708991
    H   2.506667   0.000000  -1.447207
    H   1.322295  -2.608453  -0.763386
    H  -1.441588  -2.739855  -0.920915
    H  -2.462147   0.000000  -1.475588
    H  -1.441588   2.739855  -0.920915
    H   1.322295   2.608453  -0.763386
    H   0.091768   1.294321  -2.745758
    H   0.091768  -1.294321  -2.745758
    C   0.751008   1.752968  -0.433547
    C   0.751008  -1.752968  -0.433547
