30
B13C2H15
    B   0.000000  -0.006952   1.694042
    B   1.463851   0.855975   0.827923
    B   0.000000   1.827124   0.994623
    B  -1.463851   0.855975   0.827923
    B  -1.478771  -0.825629   0.814047
    B   1.478771  -0.825629   0.814047
    B   0.000000  -1.788748   1.031438
    B   0.857013   1.854299  -0.498588
    B   1.477186   0.068818  -0.855854
    B  -0.857013   1.854299  -0.498588
    B  -1.477186   0.068818  -0.855854
    B   0.000000  -0.831351  -1.672219
    B   0.000000   0.852596  -1.681908
    H   0.000000  -0.044946   2.876075
    H  -2.431103   1.210982   1.409850
    H  -2.410043  -1.362911   1.303184
    H   0.000000  -2.801323   1.628769
    H   2.410043  -1.362911   1.303184
    H   2.431103   1.210982   1.409850
    H   0.000000   2.698268   1.792494
    H   2.476591  -0.101229  -1.461116
    H   1.266927  -2.580482  -0.789705
    H  -1.266927  -2.580482  -0.789705
    H  -2.476591  -0.101229  -1.461116
    H  -1.539414   2.734362  -0.893940
    H   1.539414   2.734362  -0.893940
    H   0.000000   1.178319  -2.819578
    H   0.000000  -1.410278  -2.699252
    C   0.774425  -1.690540  -0.427315
    C  -0.774425  -1.690540  -0.427315
