30
B13C2H15
    B   0.007113   0.000000   1.690752
    B   1.463539   0.843409   0.778981
    B  -0.018453   1.801107   1.008959
    B  -1.477041   0.841644   0.852960
    B  -1.477041  -0.841644   0.852960
    B   1.463539  -0.843409   0.778981
    B  -0.018453  -1.801107   1.008959
    B   1.481335   0.000000  -0.855198
    B  -0.883018  -1.800948  -0.488456
    B  -0.883018   1.800948  -0.488456
    B  -1.460525   0.000000  -0.851531
    B   0.057171  -0.843431  -1.656922
    B   0.057171   0.843431  -1.656922
    H   0.047775   0.000000   2.872584
    H  -2.432384   1.269467   1.404469
    H  -2.432384  -1.269467   1.404469
    H   0.076669  -2.746707   1.705397
    H   2.424700  -1.296738   1.292408
    H   2.424700   1.296738   1.292408
    H   0.076669   2.746707   1.705397
    H   2.502346   0.000000  -1.444650
    H   1.326125  -2.599989  -0.765566
    H  -1.438611  -2.746521  -0.919093
    H  -2.463750   0.000000  -1.477569
    H  -1.438611   2.746521  -0.919093
    H   1.326125   2.599989  -0.765566
    H   0.093147   1.296702  -2.746045
    H   0.093147  -1.296702  -2.746045
    C   0.751008   1.747706  -0.433557
    C   0.751008  -1.747706  -0.433557
