30
B13C2H15
    B  -0.001649   0.001948   1.703376
    B   1.471520   0.851352   0.866868
    B   0.013073   1.830714   0.996246
    B  -1.454828   0.849906   0.828546
    B  -1.430230  -0.846771   0.857736
    B   1.464961  -0.840197   0.842326
    B   0.003665  -1.829927   0.988237
    B   0.856035   1.805032  -0.497537
    B   1.478963  -0.011985  -0.817536
    B   0.870352  -1.819443  -0.502445
    B  -0.835887  -1.840217  -0.491511
    B  -0.848563   1.873832  -0.448802
    B   0.017635  -0.860460  -1.692269
    H  -0.028754   0.002131   2.884944
    H  -2.490427   1.218896   1.259067
    H  -2.477827  -1.216161   1.256644
    H  -0.022939  -2.731830   1.749491
    H   2.439211  -1.261094   1.364677
    H   2.424597   1.276465   1.421493
    H  -0.011765   2.752577   1.732752
    H   2.416633   0.072879  -1.528665
    H   1.516834  -2.715024  -0.921515
    H  -1.581378  -2.636538  -0.940023
    H  -2.235280   0.056336  -1.365640
    H  -1.538653   2.643575  -1.011063
    H   1.469319   2.650844  -1.043336
    H  -0.123400   1.124371  -2.491025
    H  -0.116463  -1.148843  -2.827938
    C  -0.008908   0.746862  -1.483308
    C  -1.346705   0.000771  -0.752257
