30
B13C2H15
    B   0.003678   0.090904   1.708284
    B   1.438193   0.845654   0.808943
    B  -0.021399   1.844652   0.997021
    B  -1.457624   0.836777   0.865631
    B  -1.410058  -0.850020   0.891110
    B   1.419509  -0.845662   0.841215
    B   1.481133  -0.090654  -0.850838
    B   0.852725  -1.844635  -0.517015
    B  -0.869009  -1.790320  -0.527808
    B  -0.891631   1.790273  -0.488622
    B  -1.458714  -0.000002  -0.842122
    B   0.020775  -0.836791  -1.695076
    B   0.066530   0.849988  -1.666706
    H   0.035403  -0.034873   2.881083
    H  -2.438095   1.215166   1.407757
    H  -2.315236  -1.344421   1.465472
    H   0.002087  -2.570265   1.544586
    H   2.335482  -1.291433   1.436955
    H   2.412125   1.291424   1.304287
    H   0.070065   2.804201   1.674679
    H   2.512692   0.035041  -1.409737
    H   1.485485  -2.804061  -0.776698
    H  -1.532157  -2.726132  -0.797001
    H  -2.482725  -0.000022  -1.433322
    H  -1.456242   2.726148  -0.928310
    H   1.338705   2.570009  -0.770492
    H   0.111338   1.344420  -2.737778
    H   0.000053  -1.215190  -2.815253
    C   0.746713   1.732303  -0.430862
    C   0.000200  -1.732481   0.862072
