30
B13C2H15
    B  -0.027293  -0.001117   1.702536
    B   1.462680   0.835788   0.873201
    B   0.006443   1.813406   0.985478
    B  -1.472083   0.847232   0.850102
    B  -1.490241  -0.838767   0.861019
    B  -0.007981  -1.794450   0.989182
    B   0.873905   1.792797  -0.504418
    B   1.461048   0.010892  -0.844191
    B   0.861425  -1.765989  -0.498055
    B  -0.861182  -1.795836  -0.486507
    B  -0.850220   1.813888  -0.498115
    B  -1.487101  -0.000879  -0.828368
    B  -0.023210   0.835670  -1.702491
    H   0.086763  -0.073162   2.874993
    H  -2.426637   1.276586   1.400461
    H  -2.434459  -1.295153   1.405931
    H   0.115423  -2.701172   1.731406
    H   2.199774  -1.181422   1.271990
    H   2.451718   1.172601   1.423662
    H   0.026513   2.717044   1.746268
    H   2.475023  -0.116773  -1.429434
    H   1.567019  -2.614817  -0.905106
    H  -1.442309  -2.702695  -0.964078
    H  -2.445151  -0.072754  -1.513819
    H  -1.498881   2.717342  -0.896481
    H   1.559746   2.669680  -0.900005
    H  -0.004251   1.172432  -2.834256
    H  -0.005155  -1.181968  -2.541181
    C  -0.004463  -0.769543  -1.540941
    C   1.333136  -0.768860   0.772675
