30
B13C2H15
    B   0.000000  -0.006419   1.692086
    B   1.463486   0.854598   0.826805
    B   0.000000   1.832539   0.993490
    B  -1.463486   0.854598   0.826805
    B  -1.464694  -0.826627   0.820624
    B   1.464694  -0.826627   0.820624
    B   0.000000  -1.795361   1.011015
    B   0.855660   1.855888  -0.498624
    B   1.469837   0.047588  -0.853930
    B  -0.855660   1.855888  -0.498624
    B  -1.469837   0.047588  -0.853930
    B   0.000000  -0.829817  -1.657156
    B   0.000000   0.855341  -1.682016
    H   0.000000  -0.061232   2.873009
    H  -2.435528   1.208564   1.399716
    H  -2.397114  -1.356161   1.314264
    H   0.000000  -2.792388   1.632831
    H   2.397114  -1.356161   1.314264
    H   2.435528   1.208564   1.399716
    H   0.000000   2.705370   1.789093
    H   2.471613  -0.102717  -1.459642
    H   1.269049  -2.577961  -0.792333
    H  -1.269049  -2.577961  -0.792333
    H  -2.471613  -0.102717  -1.459642
    H  -1.536311   2.736056  -0.895679
    H   1.536311   2.736056  -0.895679
    H   0.000000   1.182687  -2.818083
    H   0.000000  -1.389711  -2.694461
    C   0.773188  -1.689733  -0.430377
    C  -0.773188  -1.689733  -0.430377
