30
B13C2H15
    B  -0.018361  -0.004527   1.706278
    B   1.453566   0.825928   0.861022
    B   0.005333   1.813672   0.988597
    B  -1.479165   0.852278   0.854595
    B  -1.485055  -0.833260   0.857898
    B  -0.003298  -1.785487   0.987144
    B   0.871105   1.796390  -0.502946
    B   1.467145   0.004077  -0.847787
    B   0.864064  -1.758622  -0.499123
    B  -0.856793  -1.785436  -0.490267
    B  -0.853636   1.813470  -0.498755
    B  -1.486130  -0.004234  -0.837845
    B  -0.018207   0.825916  -1.688821
    H   0.084028  -0.073508   2.879118
    H  -2.434063   1.278664   1.405798
    H  -2.426391  -1.296535   1.401101
    H   0.099895  -2.700486   1.721554
    H   2.201436  -1.186809   1.270004
    H   2.438775   1.171998   1.413610
    H   0.032273   2.715971   1.749706
    H   2.482283  -0.097317  -1.433862
    H   1.558165  -2.619423  -0.899838
    H  -1.441238  -2.700501  -0.946674
    H  -2.450311  -0.073245  -1.513423
    H  -1.499166   2.715695  -0.903015
    H   1.560972   2.667771  -0.901384
    H  -0.003704   1.172019  -2.818303
    H   0.000114  -1.187314  -2.541292
    C   0.000292  -0.773751  -1.542217
    C   1.336072  -0.773396   0.770584
