30
B13C2H15
    B   0.028923  -0.004536   1.678418
    B   1.486952   0.842755   0.812024
    B   0.007958   1.786116   1.002860
    B  -1.495166  -0.827981   0.863360
    B   1.482028  -0.846923   0.750055
    B  -0.033094  -1.785832   1.017685
    B   0.847551   1.867440  -0.489331
    B   1.498651   0.136683  -0.864910
    B  -0.897253  -1.786440  -0.480326
    B  -0.864729   1.786857  -0.508129
    B  -1.439682  -0.004396  -0.863928
    B   0.091131  -0.846609  -1.658137
    B   0.040073   0.843075  -1.693827
    H  -0.052016   0.045080   2.854867
    H  -2.190610   1.175066   1.263662
    H  -2.473688  -1.168567   1.428554
    H   0.049304  -2.724270   1.725542
    H   2.412788  -1.349101   1.274747
    H   2.445320   1.216338   1.394093
    H  -0.120491   2.642157   1.802970
    H   2.513007  -0.016681  -1.450386
    H   1.280009  -2.631889  -0.739021
    H  -1.469106  -2.724841  -0.905605
    H  -2.498921   0.044745  -1.382208
    H  -1.621701   2.643173  -0.796436
    H   1.453964   2.817861  -0.839355
    H   0.015272   1.216343  -2.814934
    H   0.102493  -1.348624  -2.726613
    C   0.722767  -1.764908  -0.416748
    C  -1.321733   0.767906   0.762514
