30
B13C2H15
    B   0.000000   0.000000   1.700601
    B   1.463895   0.843928   0.846394
    B   0.000000   1.823004   0.992119
    B  -1.463895   0.843928   0.846394
    B  -1.463895  -0.843928   0.846394
    B   0.000000  -1.823004   0.992119
    B   0.859932   1.821903  -0.496254
    B   1.473707   0.000000  -0.851754
    B   0.859932  -1.821903  -0.496254
    B  -0.859932  -1.821903  -0.496254
    B  -0.859932   1.821903  -0.496254
    B   0.000000  -0.844063  -1.691127
    B   0.000000   0.844063  -1.691127
    H   0.000000   0.000000   2.898644
    H  -2.433727   1.273203   1.406898
    H  -2.433727  -1.273203   1.406898
    H   0.000000  -2.743058   1.758532
    H   2.433727  -1.273203   1.406898
    H   2.433727   1.273203   1.406898
    H   0.000000   2.743058   1.758532
    H   2.511498   0.000000  -1.450184
    H   1.523367  -2.742176  -0.879655
    H  -1.523367  -2.742176  -0.879655
    H  -2.511498   0.000000  -1.450184
    H  -1.523367   2.742176  -0.879655
    H   1.523367   2.742176  -0.879655
    H   0.000000   1.273377  -2.811246
    H   0.000000  -1.273377  -2.811246
    C   1.463895  -0.843928   0.846394
    C  -1.584565   0.000000  -0.915679
