30
B13C2H15
    B   0.040307   0.004309   1.674747
    B   1.469934   0.834679   0.793881
    B  -0.002735   1.786064   1.007482
    B  -1.495195   0.851126   0.862636
    B   1.508636  -0.863840   0.716997
    B  -0.015784  -1.758167   1.022010
    B   0.850466   1.878319  -0.490850
    B   1.513384   0.190301  -0.873372
    B  -0.892058  -1.759093  -0.497646
    B  -0.873799   1.786779  -0.501161
    B  -1.430633   0.004139  -0.871742
    B   0.132152  -0.863560  -1.665012
    B   0.047647   0.835012  -1.670086
    H  -0.045177  -0.070707   2.849771
    H  -2.476687   1.179037   1.428949
    H  -2.202919  -1.160497   1.271330
    H  -0.069150  -2.675312   1.756511
    H   2.449633  -1.367026   1.221014
    H   2.408647   1.183105   1.423880
    H  -0.028665   2.667572   1.794067
    H   2.526563   0.026877  -1.458575
    H   1.225144  -2.706599  -0.707477
    H  -1.554649  -2.676552  -0.818123
    H  -2.491232  -0.070851  -1.384703
    H  -1.568010   2.668405  -0.871563
    H   1.462596   2.824184  -0.844464
    H  -0.028072   1.183280  -2.798111
    H   0.167251  -1.366587  -2.731967
    C   0.705298  -1.809514  -0.406518
    C  -1.332894  -0.754886   0.769553
