30
B13C2H15
    B   0.024300   0.008236   1.672889
    B   1.477959   0.841878   0.789533
    B  -0.003876   1.787027   1.013109
    B  -1.483355   0.851211   0.856185
    B   1.510061  -0.869880   0.671218
    B  -0.024914  -1.763013   1.034680
    B   0.845681   1.896042  -0.488231
    B   1.550713   0.229239  -0.895381
    B  -0.908483  -1.763060  -0.495635
    B  -0.879099   1.787096  -0.503069
    B  -1.436313   0.008262  -0.857512
    B   0.173200  -0.869808  -1.643225
    B   0.055611   0.841877  -1.674598
    H  -0.047040  -0.082724   2.847561
    H  -2.466031   1.177327   1.423169
    H  -2.210339  -1.150316   1.277124
    H  -0.071084  -2.657279   1.796949
    H   2.458229  -1.365713   1.171465
    H   2.419979   1.163565   1.428232
    H  -0.035968   2.657285   1.811814
    H   2.563451   0.061894  -1.480260
    H   1.180734  -2.764928  -0.681639
    H  -1.591841  -2.657201  -0.836838
    H  -2.489030  -0.082734  -1.383573
    H  -1.586681   2.657449  -0.874733
    H   1.432368   2.863964  -0.826995
    H  -0.026311   1.163763  -2.809716
    H   0.214108  -1.366005  -2.714327
    C   0.689980  -1.844646  -0.398299
    C  -1.336009  -0.758809   0.771562
