30
B13C2H15
    B   0.002423   0.084231   1.705892
    B   1.441673   0.844649   0.813247
    B  -0.021066   1.838194   0.997592
    B  -1.458834   0.837016   0.865640
    B  -1.415869  -0.848658   0.885254
    B   1.425002  -0.844730   0.842181
    B   1.478420  -0.083850  -0.850689
    B   0.853376  -1.838252  -0.516989
    B  -0.866925  -1.789679  -0.526859
    B  -0.889782   1.789617  -0.487332
    B  -1.459848   0.000020  -0.842688
    B   0.020283  -0.836987  -1.696114
    B   0.058652   0.848640  -1.668913
    H   0.030212  -0.038838   2.879167
    H  -2.438520   1.217585   1.407672
    H  -2.319843  -1.346798   1.458101
    H   0.002032  -2.563931   1.546275
    H   2.338331  -1.296496   1.437310
    H   2.413850   1.296380   1.306455
    H   0.073798   2.800334   1.671227
    H   2.508414   0.039039  -1.413278
    H   1.484428  -2.800204  -0.771767
    H  -1.524018  -2.731744  -0.789221
    H  -2.483868  -0.000049  -1.433974
    H  -1.445556   2.731757  -0.925025
    H   1.340193   2.563685  -0.771335
    H   0.102667   1.346909  -2.738141
    H  -0.000203  -1.217619  -2.815547
    C   0.749468   1.725532  -0.431428
    C   0.001109  -1.725753   0.864743
