30
B13C2H15
    B  -0.002366  -0.003809   1.704513
    B   1.469026   0.835298   0.847143
    B  -0.000198   1.808398   0.972240
    B  -1.451315   0.827126   0.842165
    B  -1.448309  -0.848351   0.866983
    B   1.468393  -0.845075   0.857987
    B  -0.000533  -1.820088   0.989284
    B   0.854438   1.787528  -0.507170
    B   1.469682   0.007794  -0.840854
    B   0.856688  -1.800049  -0.501095
    B  -0.851753  -1.797113  -0.487100
    B  -0.846149   1.778759  -0.495008
    B   0.011410  -0.797254  -1.655362
    H  -0.035994   0.007717   2.883490
    H  -2.442662   1.254030   1.315609
    H  -2.440923  -1.255213   1.357118
    H  -0.030938  -2.741290   1.722637
    H   2.428502  -1.274311   1.394243
    H   2.422674   1.280268   1.380536
    H  -0.030334   2.741970   1.687844
    H   2.442874   0.036861  -1.502748
    H   1.489422  -2.695275  -0.931882
    H  -1.547490  -2.640512  -0.924405
    H  -2.329134   0.051650  -1.402508
    H  -1.520069   2.629878  -0.947739
    H   1.460654   2.685232  -0.965694
    H  -0.045361   1.151668  -2.559306
    H  -0.046096  -1.164924  -2.775018
    C   0.011279   0.786889  -1.579658
    C  -1.426280   0.012199  -0.808713
