30
B13C2H15
    B   0.029924   0.004949   1.692614
    B   1.487761   0.845362   0.820694
    B   0.005410   1.793011   1.000822
    B  -1.475160  -0.819620   0.851652
    B   1.476694  -0.838248   0.794169
    B  -0.022942  -1.794150   1.008532
    B   0.844878   1.857518  -0.487783
    B   1.488740   0.065366  -0.859872
    B  -0.885165  -1.794185  -0.483960
    B  -0.863579   1.792610  -0.505185
    B  -1.449324   0.005088  -0.872231
    B   0.049440  -0.838498  -1.675939
    B   0.034341   0.845155  -1.698799
    H  -0.064759   0.044180   2.867771
    H  -2.191442   1.166253   1.265115
    H  -2.451432  -1.172682   1.415054
    H   0.041990  -2.742406   1.703703
    H   2.406133  -1.356907   1.304602
    H   2.447385   1.233244   1.391728
    H  -0.117890   2.650035   1.800796
    H   2.504452  -0.067002  -1.446270
    H   1.313185  -2.566510  -0.757852
    H  -1.454773  -2.742455  -0.887663
    H  -2.514435   0.044376  -1.377821
    H  -1.618401   2.649163  -0.798935
    H   1.463871   2.797332  -0.844529
    H   0.019244   1.233271  -2.815283
    H   0.071477  -1.357299  -2.736029
    C   0.741460  -1.708949  -0.428460
    C  -1.317086   0.771998   0.760818
