30
B13C2H15
    B   0.000000  -0.011411   1.691887
    B   1.464917   0.853017   0.828580
    B   0.000000   1.820607   0.995310
    B  -1.464917   0.853017   0.828580
    B  -1.482945  -0.829657   0.804119
    B   1.482945  -0.829657   0.804119
    B   0.000000  -1.781590   1.036350
    B   0.858085   1.848563  -0.499615
    B   1.479003   0.078605  -0.855595
    B  -0.858085   1.848563  -0.499615
    B  -1.479003   0.078605  -0.855595
    B   0.000000  -0.834960  -1.673517
    B   0.000000   0.847706  -1.680274
    H   0.000000  -0.036993   2.874128
    H  -2.428553   1.214354   1.412209
    H  -2.415642  -1.360579   1.296887
    H   0.000000  -2.793141   1.635720
    H   2.415642  -1.360579   1.296887
    H   2.428553   1.214354   1.412209
    H   0.000000   2.695041   1.789445
    H   2.478253  -0.091886  -1.460858
    H   1.266826  -2.587037  -0.786991
    H  -1.266826  -2.587037  -0.786991
    H  -2.478253  -0.091886  -1.460858
    H  -1.534416   2.735541  -0.889903
    H   1.534416   2.735541  -0.889903
    H   0.000000   1.184779  -2.814713
    H   0.000000  -1.414317  -2.700135
    C   0.770956  -1.698783  -0.425206
    C  -0.770956  -1.698783  -0.425206
