32
B14C2H16
    B   2.568984   0.034201  -0.322073
    B   1.685911   1.412845   0.057499
    B   0.403065   1.343352   1.169387
    B  -1.248035   1.397744   0.628907
    B  -0.236897  -1.834721  -0.604956
    B   1.414202  -1.188152  -0.337859
    B  -1.697255  -0.960657  -0.881865
    B  -2.233331   0.001599   0.470114
    B   1.690197   0.008593   1.167472
    B   0.330298  -1.371026   1.089891
    B  -0.858761   0.004072   1.681483
    B  -1.342530  -1.486164   0.811743
    B   0.012899   1.508619  -0.705161
    B  -0.255570  -0.228473  -1.609367
    H  -1.047881   0.120641   2.841407
    H   2.339663  -0.141318   2.142806
    H  -1.995864  -2.313351   1.345164
    H   0.801504  -2.148447   1.854033
    H  -0.273460  -2.930549  -1.041099
    H  -2.461565  -1.461074  -1.627236
    H  -3.393193   0.103996   0.658496
    H  -1.801838   2.397510   0.927485
    H   0.551874   2.210505   1.963114
    H   3.667338  -0.023207  -0.739408
    H   2.053431  -2.089681  -0.773665
    H  -0.371691  -0.279794  -2.786419
    H  -2.136273   1.259618  -1.561468
    H   0.090671   2.466618  -1.387383
    H   1.635513   0.651406  -2.245035
    H   2.294647   2.425011   0.000595
    C  -1.509606   0.715773  -0.858521
    C   1.299593   0.394403  -1.256470
