32
B14C2H16
    B   2.585166   0.075652  -0.457603
    B   1.665371   1.419172   0.108459
    B   0.434527   0.972780   1.331395
    B  -1.196057   1.385413   0.609806
    B  -0.254378  -1.828050  -0.434626
    B   1.354616  -1.109572  -0.445866
    B  -1.708620  -0.990072  -0.862774
    B  -2.284751   0.039446   0.450307
    B   1.889470  -0.050102   1.041946
    B   0.300249  -1.118702   1.194139
    B  -1.069812   0.040795   1.712586
    B  -1.417230  -1.445317   0.827927
    B   0.048582   1.476114  -0.787889
    B  -0.193720  -0.389081  -1.602139
    H  -1.364261   0.163826   2.849539
    H   2.559957  -0.241964   1.993842
    H  -1.959708  -2.349786   1.359164
    H   0.720194  -1.852603   2.021952
    H  -0.190413  -2.955470  -0.779213
    H  -2.474760  -1.441404  -1.637547
    H  -3.443216   0.235420   0.546461
    H  -1.605933   2.474778   0.803011
    H   0.626153   1.683301   2.264230
    H   3.682900  -0.000846  -0.871303
    H   1.983828  -1.959651  -0.981796
    H  -0.242126  -0.495780  -2.776166
    H  -2.071684   1.219910  -1.597857
    H  -0.026472   2.503549  -1.368101
    H   1.622581   0.828514  -2.324641
    H   2.132006   2.502644   0.109581
    C  -1.455099   0.673101  -0.899258
    C   1.328674   0.533876  -1.325956
