32
B14C2H16
    B  -1.538714  -0.774336   1.232119
    B  -0.645278   0.585622   1.815784
    B  -1.910887   0.785618   0.552571
    B  -1.757074  -0.547212  -0.574125
    B  -0.827707  -1.869722   0.081850
    B   0.235810  -1.040710   1.428601
    B  -0.561913   1.886774   0.699687
    B   1.009832   1.063847   1.010606
    B   1.499931  -0.782260  -1.297607
    B  -1.064227   1.221724  -0.951355
    B  -0.223776  -1.160515  -1.429806
    B   1.861987   0.777785  -0.584034
    B   0.533073   1.873421  -0.644715
    B   0.507717   0.554540  -1.787476
    H  -2.735890  -0.848234  -1.165373
    H  -2.987918   1.239270   0.737201
    H  -0.687973   0.822961   2.972616
    H  -2.254904  -1.333529   1.990663
    H   0.647715  -1.671110   2.335497
    H   1.306166  -2.673069  -0.007919
    H  -1.167767  -3.000227   0.064489
    H  -0.368452  -1.879748  -2.356577
    H   2.347896  -1.326178  -1.906557
    H  -1.731289   1.794877  -1.741660
    H  -0.697712   2.971336   1.153173
    H   1.764101   1.491955   1.811099
    H   2.564412  -0.839490   0.921297
    H   0.833390   2.941280  -1.055710
    H   2.973476   1.151651  -0.713063
    H   0.619978   0.816150  -2.934848
    C   1.656549  -0.509331   0.438836
    C   0.799448  -1.723144  -0.095267
