32
B14C2H16
    B  -1.078152  -0.927403   1.258346
    B  -0.551799   0.702401   1.899395
    B  -1.899957   0.565896   0.794175
    B  -1.699405  -0.615267  -0.499102
    B  -0.162316  -1.408511  -1.230668
    B   0.534468  -0.659668   1.902044
    B   0.449188  -1.750526   0.536922
    B  -0.595317   1.801502   0.555980
    B   1.041334   0.998088   1.121296
    B   1.844477  -0.573487   0.785897
    B  -1.520850   1.211273  -0.782512
    B   1.782355   0.541032  -0.536810
    B   0.235680   1.412235  -1.078917
    B   0.886900  -0.031549  -1.885583
    H  -2.634762  -1.225844  -0.876551
    H  -2.995754   0.765289   1.190101
    H  -0.752704   1.146325   2.977065
    H  -1.759280  -1.729896   1.799014
    H   0.806367  -1.112477   2.959818
    H   0.552694  -2.917229   0.675277
    H  -0.388977  -2.354129  -1.892412
    H  -1.216842   0.054877  -2.708039
    H   2.122250  -1.828002  -1.140096
    H  -2.270244   1.892772  -1.387303
    H  -0.691071   2.954961   0.792753
    H   1.757101   1.769156   1.662474
    H   2.927290  -0.870346   1.147840
    H   0.441739   2.353749  -1.763447
    H   2.840107   0.956561  -0.851569
    H   1.354610  -0.055230  -2.965029
    C  -0.756856   0.070171  -1.728544
    C   1.397727  -1.136726  -0.731816
