32
B14C2H16
    B  -1.073380  -0.944421   1.209712
    B  -0.535341   0.692263   1.902172
    B  -1.866933   0.580382   0.781442
    B  -1.744123  -0.572970  -0.512608
    B  -0.186222  -1.411784  -1.183817
    B   0.530026  -0.688443   1.918034
    B   0.493361  -1.757577   0.548323
    B  -0.480283   1.771461   0.518060
    B   1.077775   0.946407   1.257540
    B   1.856150  -0.564539   0.800265
    B  -1.511445   1.218492  -0.796609
    B   1.700220   0.630594  -0.488378
    B   0.192201   1.428899  -1.204315
    B   0.864628  -0.047857  -1.876870
    H  -2.688021  -1.173527  -0.887064
    H  -2.948293   0.796026   1.209281
    H  -0.793380   1.152820   2.960504
    H  -1.753319  -1.756024   1.737760
    H   0.767558  -1.171535   2.971171
    H   0.616836  -2.923469   0.679650
    H  -0.380576  -2.367829  -1.841831
    H  -1.242630  -0.009741  -2.731875
    H   2.122846  -1.791325  -1.136069
    H  -2.276021   1.919531  -1.358651
    H  -0.548711   2.931820   0.737581
    H   1.778570   1.699182   1.841960
    H   2.955154  -0.849395   1.121125
    H   0.366377   2.332580  -1.944179
    H   2.744655   1.073563  -0.816058
    H   1.354175  -0.081162  -2.946786
    C  -0.786788   0.046332  -1.752044
    C   1.394935  -1.108760  -0.717431
