32
B14C2H16
    B  -1.553701  -0.802217   1.250538
    B  -0.623632   0.594132   1.815764
    B  -1.915055   0.757725   0.599062
    B  -1.836137  -0.586709  -0.506902
    B  -0.782239  -1.850017   0.060686
    B   0.206611  -1.088420   1.445601
    B  -0.542592   1.834889   0.651649
    B   1.009411   1.062897   1.027580
    B   1.456211  -0.817061  -1.283897
    B  -1.016487   1.040569  -1.023288
    B  -0.386338  -0.884321  -1.499955
    B   1.904296   0.765026  -0.579281
    B   0.562075   1.871560  -0.661167
    B   0.614290   0.582251  -1.803224
    H  -2.811679  -0.963274  -1.056613
    H  -2.964643   1.269661   0.780090
    H  -0.663101   0.839712   2.969275
    H  -2.291815  -1.332238   2.011670
    H   0.601853  -1.711906   2.365694
    H   1.359120  -2.665093   0.079014
    H  -1.101353  -2.986750  -0.016069
    H  -0.552165  -1.581504  -2.440735
    H   2.283948  -1.376742  -1.905969
    H  -1.694916   1.619359  -1.798836
    H  -0.715973   2.936625   1.047902
    H   1.757102   1.528257   1.811409
    H   2.588351  -0.819606   0.930843
    H   0.802403   2.956868  -1.057760
    H   2.998211   1.185031  -0.696805
    H   0.787022   0.855348  -2.940282
    C   1.680271  -0.506260   0.444519
    C   0.840652  -1.727795  -0.020515
