32
B14C2H16
    B  -1.109083  -0.916821   1.309523
    B  -0.549326   0.735423   1.909825
    B  -1.908297   0.551111   0.806811
    B  -1.647507  -0.605385  -0.475660
    B  -0.153967  -1.390222  -1.279325
    B   0.503993  -0.666686   1.916444
    B   0.442352  -1.735464   0.558208
    B  -0.614059   1.785345   0.573906
    B   1.018453   0.997435   1.053906
    B   1.854410  -0.566721   0.796600
    B  -1.535489   1.209124  -0.739383
    B   1.784165   0.549265  -0.517111
    B   0.235878   1.360264  -1.018536
    B   0.908413  -0.087023  -1.893409
    H  -2.568671  -1.198270  -0.918569
    H  -3.015739   0.714838   1.190215
    H  -0.707155   1.190649   2.990649
    H  -1.774003  -1.732525   1.848981
    H   0.794739  -1.160483   2.952400
    H   0.525127  -2.908572   0.665956
    H  -0.305596  -2.303676  -2.004601
    H  -1.174909   0.187301  -2.659605
    H   2.097357  -1.878302  -1.103222
    H  -2.289289   1.873477  -1.358040
    H  -0.683566   2.950255   0.769804
    H   1.690203   1.830978   1.561825
    H   2.927345  -0.881607   1.170583
    H   0.399174   2.237622  -1.794729
    H   2.822852   0.946497  -0.911324
    H   1.351160  -0.078684  -2.981691
    C  -0.710324   0.137014  -1.682806
    C   1.391358  -1.146155  -0.737627
