32
B14C2H16
    B  -1.539292  -0.792053   1.259390
    B  -0.626667   0.578720   1.813169
    B  -1.920733   0.762365   0.587474
    B  -1.826871  -0.582915  -0.502616
    B  -0.817564  -1.870745   0.053265
    B   0.215655  -1.084305   1.453279
    B  -0.560697   1.851604   0.657361
    B   1.017474   1.071715   1.008256
    B   1.495473  -0.792591  -1.278308
    B  -1.035984   1.059297  -1.013954
    B  -0.344320  -0.943386  -1.494305
    B   1.896506   0.774314  -0.581098
    B   0.555200   1.876057  -0.660116
    B   0.615147   0.583716  -1.817218
    H  -2.821531  -0.924628  -1.044548
    H  -2.977186   1.262735   0.764400
    H  -0.670242   0.823479   2.969395
    H  -2.245682  -1.339786   2.034181
    H   0.651430  -1.694693   2.361887
    H   1.325986  -2.658820   0.039398
    H  -1.157720  -2.998316  -0.025634
    H  -0.524144  -1.629834  -2.441078
    H   2.314061  -1.391426  -1.878365
    H  -1.706483   1.629114  -1.806003
    H  -0.733588   2.946240   1.073465
    H   1.773364   1.537257   1.788058
    H   2.572839  -0.822418   0.947987
    H   0.813782   2.965703  -1.037036
    H   3.002927   1.171347  -0.682455
    H   0.787332   0.847714  -2.956771
    C   1.664119  -0.502855   0.456122
    C   0.807408  -1.712607  -0.047584
