32
B14C2H16
    B   2.568690  -0.027555  -0.287693
    B   1.645420   1.321689  -0.059344
    B   0.388075   1.518394   1.043830
    B  -0.079654  -1.497987  -0.800706
    B   1.669676  -1.362322  -0.015789
    B  -1.761116  -0.876283  -0.933831
    B  -2.197459  -0.033498   0.536495
    B   1.600627   0.014390   1.210799
    B  -0.707923  -0.042513   1.601987
    B  -1.264251  -1.487351   0.645471
    B  -1.734712   0.872755  -0.907171
    B  -0.060769   1.536008  -0.809648
    B   1.278387  -0.022227  -1.396975
    B  -0.471518   0.016614  -1.762711
    H  -0.829981  -0.003092   2.772084
    H   2.058377  -0.034456   2.298464
    H  -1.709724  -2.439304   1.181336
    H   0.525382  -2.065456   1.665426
    H   0.100144  -2.565939  -1.272748
    H  -2.552736  -1.487888  -1.560283
    H  -3.276018   0.084754   0.995956
    H  -1.697486   2.103128   1.114720
    H   0.515772   2.385275   1.836104
    H   3.726223  -0.028892  -0.505859
    H   2.194231  -2.419914   0.054877
    H  -0.600717   0.023184  -2.937048
    H  -2.529531   1.578264  -1.416966
    H  -0.067513   2.605205  -1.311786
    H   1.763625  -0.014346  -2.475998
    H   2.291223   2.316444  -0.027935
    C   0.351436  -1.261357   0.958975
    C  -1.160142   1.294168   0.637574
