32
B14C2H16
    B   2.619292   0.000084  -0.375112
    B   1.685767   1.311153  -0.040503
    B   0.407419   1.209070   1.155529
    B  -1.278699   1.414783   0.672865
    B  -0.070550  -1.497639  -0.747399
    B   1.686289  -1.310855  -0.039043
    B  -1.741125  -0.888742  -0.930630
    B   0.407825  -1.207862   1.156591
    B  -0.944351   0.000734   1.652523
    B  -1.278224  -1.414442   0.674199
    B  -1.741451   0.887400  -0.931461
    B  -0.071204   1.497138  -0.748772
    B   1.257148  -0.000668  -1.388812
    B  -0.490788  -0.000843  -1.767392
    H  -1.153099   0.001225   2.820998
    H   2.365301   0.001405   2.098794
    H  -1.752248  -2.388430   1.156374
    H   0.601649  -2.040622   1.984967
    H   0.047369  -2.549323  -1.286035
    H  -2.503672  -1.530558  -1.572278
    H  -3.316186  -0.000105   0.807172
    H  -1.753026   2.389095   1.154092
    H   0.601199   2.042673   1.983064
    H   3.759957   0.000130  -0.687626
    H   2.212020  -2.375312  -0.027132
    H  -0.601374  -0.001433  -2.948618
    H  -2.504212   1.528301  -1.573766
    H   0.046411   2.548384  -1.288322
    H   1.719514  -0.001269  -2.483574
    H   2.211279   2.375731  -0.029693
    C  -2.251094  -0.000078   0.484262
    C   1.798899   0.000767   1.136347
