32
B14C2H16
    B   2.573828   0.044905  -0.352370
    B   1.684995   1.413169   0.061115
    B   0.401248   1.309148   1.192585
    B  -1.240043   1.399743   0.657181
    B  -0.264477  -1.850120  -0.535913
    B   1.386927  -1.172454  -0.358981
    B  -1.710681  -0.964516  -0.877773
    B  -2.245045   0.015106   0.485105
    B   1.736098   0.011670   1.127831
    B   0.319371  -1.337813   1.083192
    B  -0.880106  -0.005105   1.675722
    B  -1.374411  -1.471278   0.804423
    B   0.005798   1.543184  -0.704204
    B  -0.236121  -0.273576  -1.629663
    H  -1.076601   0.066512   2.838841
    H   2.323967  -0.134833   2.140068
    H  -1.957712  -2.332922   1.364710
    H   0.772067  -2.107689   1.861945
    H  -0.212600  -2.936751  -0.995032
    H  -2.504466  -1.396823  -1.635215
    H  -3.403073   0.173756   0.638416
    H  -1.797783   2.406488   0.921524
    H   0.559951   2.131066   2.031697
    H   3.687666  -0.032824  -0.720329
    H   2.081583  -2.037087  -0.780978
    H  -0.347483  -0.316714  -2.804491
    H  -2.140241   1.243220  -1.547381
    H  -0.019281   2.527369  -1.355575
    H   1.710997   0.580346  -2.320056
    H   2.279892   2.432168  -0.001566
    C  -1.491991   0.704724  -0.871876
    C   1.353764   0.367823  -1.321342
