32
B14C2H16
    B   0.025475   1.507830   0.696255
    B  -1.387015   0.362272   0.633285
    B  -1.506081  -0.800738  -0.502012
    B  -0.277260  -2.103203  -1.042940
    B   0.036258  -0.481405   1.202943
    B   0.348338  -1.961974   0.669730
    B  -1.006397   2.043041  -0.117820
    B   1.466838   0.511858   1.155224
    B   1.792082  -0.861685   0.576753
    B   1.310616  -1.823259  -0.681512
    B  -1.508627   0.971857  -1.105703
    B  -0.120461  -0.375353  -1.522922
    B   1.310782   0.293741  -0.625376
    B  -0.245800   1.812886  -1.151640
    H  -2.540753  -1.358755  -0.376904
    H  -2.162381   0.281996   1.530738
    H   0.127520   2.495989   1.343074
    H  -1.267131  -1.447493   1.697200
    H  -0.124593  -0.451276   2.379438
    H   0.146896  -2.897685   1.363153
    H  -0.702033  -2.995887  -1.697584
    H  -0.449066  -0.381247  -2.667744
    H   2.021705  -2.472635  -1.364447
    H  -2.361680   0.830105  -1.905730
    H  -1.285511   3.165844  -0.012055
    H   2.437528   0.787068   1.752120
    H   2.884018  -1.023970   0.994222
    H   1.042177   2.442101   0.765779
    H   2.080639   0.808413  -1.356546
    H  -0.004058   2.634962  -1.957858
    C   0.548201   1.530494   0.414626
    C  -0.630222  -1.043892   0.914252
