32
B14C2H16
    B  -1.083527  -0.938515   1.249341
    B  -0.562427   0.714755   1.898368
    B  -1.906930   0.559266   0.790183
    B  -1.715669  -0.595673  -0.502344
    B  -0.193850  -1.418280  -1.220757
    B   0.522401  -0.646912   1.898008
    B   0.472351  -1.750117   0.556867
    B  -0.624003   1.799036   0.567416
    B   1.028572   1.013014   1.058397
    B   1.862002  -0.578669   0.788406
    B  -1.512859   1.208263  -0.784996
    B   1.801838   0.537354  -0.541057
    B   0.303368   1.449546  -0.966550
    B   0.868700  -0.047584  -1.886422
    H  -2.660389  -1.184003  -0.897864
    H  -3.003186   0.733946   1.199210
    H  -0.747916   1.148380   2.982923
    H  -1.742509  -1.754423   1.796042
    H   0.808575  -1.102876   2.951921
    H   0.573414  -2.918458   0.690293
    H  -0.364481  -2.359949  -1.905572
    H  -1.216422   0.043270  -2.703825
    H   2.104042  -1.856054  -1.136404
    H  -2.250368   1.892414  -1.401998
    H  -0.740161   2.954902   0.790995
    H   1.713354   1.817068   1.594526
    H   2.937119  -0.884350   1.163354
    H   0.511436   2.369384  -1.681000
    H   2.851390   0.918712  -0.921890
    H   1.328536  -0.036244  -2.969410
    C  -0.760906   0.055040  -1.722175
    C   1.398505  -1.142244  -0.733986
