32
B14C2H16
    B   2.603544   0.000147  -0.429811
    B   1.652092   1.305057  -0.078789
    B   0.422655   1.073725   1.227096
    B  -1.256025   1.410002   0.656612
    B  -0.065332  -1.482113  -0.762666
    B   1.652464  -1.304690  -0.077510
    B  -1.714934  -0.900613  -0.948589
    B   0.422973  -1.072419   1.228182
    B  -1.013264   0.000663   1.668228
    B  -1.255625  -1.409735   0.657977
    B  -1.715190   0.899205  -0.949453
    B  -0.065762   1.481373  -0.764083
    B   1.238099  -0.000535  -1.413615
    B  -0.506962  -0.000949  -1.813842
    H  -1.355588   0.001176   2.797264
    H   2.381514   0.001255   1.903784
    H  -1.748950  -2.361717   1.148405
    H   0.667238  -1.840919   2.095763
    H   0.066321  -2.551912  -1.254409
    H  -2.549083  -1.520689  -1.504241
    H  -3.167108  -0.000092   0.736599
    H  -1.749610   2.362324   1.146118
    H   0.666722   1.843134   2.093929
    H   3.765865   0.000220  -0.605318
    H   2.191356  -2.344954   0.063371
    H  -0.626399  -0.001530  -2.988693
    H  -2.549503   1.518509  -1.505720
    H   0.065607   2.550733  -1.256850
    H   1.686407  -0.001002  -2.511203
    H   2.190727   2.345592   0.061069
    C  -2.127279  -0.000090   0.441221
    C   1.769069   0.000736   1.010782
