32
B14C2H16
    B   2.572947   0.041429  -0.347278
    B   1.685424   1.409426   0.053300
    B   0.395983   1.320832   1.181002
    B  -1.247136   1.405643   0.664331
    B  -0.255493  -1.841998  -0.545478
    B   1.411692  -1.187612  -0.334227
    B  -1.708223  -0.959179  -0.883005
    B  -2.245817   0.012942   0.485858
    B   1.722362   0.014596   1.136409
    B   0.323040  -1.345844   1.080017
    B  -0.872509  -0.007695   1.676103
    B  -1.365462  -1.472627   0.801654
    B  -0.002223   1.550728  -0.700609
    B  -0.239878  -0.250400  -1.639759
    H  -1.058805   0.061547   2.840846
    H   2.317009  -0.123462   2.145918
    H  -1.960173  -2.331189   1.355104
    H   0.776455  -2.120528   1.854085
    H  -0.211174  -2.929327  -1.004585
    H  -2.505312  -1.391763  -1.637003
    H  -3.404040   0.163721   0.644427
    H  -1.810029   2.405080   0.943508
    H   0.553992   2.149634   2.013207
    H   3.683900  -0.026566  -0.725801
    H   2.094163  -2.066659  -0.746028
    H  -0.364101  -0.286902  -2.813630
    H  -2.164009   1.239544  -1.544285
    H  -0.008761   2.527265  -1.366488
    H   1.728174   0.553983  -2.314655
    H   2.292204   2.421087  -0.008930
    C  -1.505520   0.712082  -0.872908
    C   1.347360   0.352105  -1.319490
