32
B14C2H16
    B   2.608421   0.000118  -0.381377
    B   1.675848   1.304216  -0.045003
    B   0.406326   1.191014   1.150685
    B  -1.277077   1.403586   0.672212
    B  -0.070355  -1.493450  -0.743629
    B   1.676338  -1.303920  -0.043555
    B  -1.733194  -0.886750  -0.929474
    B   0.406685  -1.189814   1.151777
    B  -0.947556   0.000700   1.647881
    B  -1.276641  -1.403258   0.673540
    B  -1.733491   0.885388  -0.930313
    B  -0.070954   1.492924  -0.744996
    B   1.253658  -0.000647  -1.390659
    B  -0.491858  -0.000847  -1.768583
    H  -1.177167   0.001185   2.806260
    H   2.306064   0.001364   2.012175
    H  -1.760226  -2.360645   1.163820
    H   0.610700  -2.007648   1.983733
    H   0.050395  -2.546724  -1.268213
    H  -2.512705  -1.520687  -1.545816
    H  -3.211135  -0.000111   0.782142
    H  -1.760951   2.361298   1.161575
    H   0.610281   2.009712   1.981801
    H   3.752693   0.000199  -0.652769
    H   2.210543  -2.355990   0.004835
    H  -0.606559  -0.001428  -2.943940
    H  -2.513203   1.518446  -1.547304
    H   0.049510   2.545762  -1.270505
    H   1.719689  -0.001216  -2.479155
    H   2.209846   2.356443   0.002283
    C  -2.193455  -0.000089   0.469858
    C   1.765567   0.000760   1.092322
