32
B14C2H16
    B  -1.361994  -1.139706   0.895397
    B  -0.603402   0.374103   1.858721
    B  -1.883423   0.540620   0.731322
    B  -1.883417  -0.540629  -0.731326
    B  -0.647503  -1.756295  -0.558347
    B   0.490244  -1.699593   0.698410
    B  -0.647515   1.756293   0.558344
    B   1.143614   1.089685   0.997580
    B   1.899953  -0.553081   0.672505
    B   1.143628  -1.089682  -0.997577
    B  -1.362004   1.139701  -0.895397
    B  -0.603395  -0.374100  -1.858723
    B   1.899952   0.553091  -0.672498
    B   0.490233   1.699591  -0.698415
    H  -2.924686  -0.845740  -1.201106
    H  -2.924695   0.845722   1.201100
    H  -0.918092   0.651146   2.964912
    H  -1.926183  -1.873356   1.629908
    H   1.196245  -0.615419   2.744129
    H   0.845821  -2.758719   1.084606
    H  -0.834467  -2.861936  -0.932465
    H  -0.918084  -0.651143  -2.964915
    H   1.759962  -1.853538  -1.652526
    H  -1.926199   1.873348  -1.629907
    H  -0.834483   2.861934   0.932458
    H   1.759943   1.853544   1.652532
    H   2.963539  -0.924643   1.023027
    H   0.845804   2.758719  -1.084613
    H   2.963537   0.924661  -1.023014
    H   1.196257   0.615418  -2.744127
    C   0.800402  -0.377702   1.765586
    C   0.800410   0.377702  -1.765586
