32
B14C2H16
    B   2.572970   0.043851  -0.386206
    B   1.703237   1.422409   0.103691
    B   0.418386   1.259192   1.238960
    B  -1.210909   1.386411   0.623816
    B  -0.278062  -1.872529  -0.505529
    B   1.306230  -1.116809  -0.421268
    B  -1.728499  -0.988671  -0.864619
    B  -2.252769   0.021629   0.479882
    B   1.780743  -0.004916   1.107901
    B   0.309964  -1.305739   1.108137
    B  -0.911098   0.003022   1.677140
    B  -1.393562  -1.470385   0.814371
    B   0.054868   1.501960  -0.735559
    B  -0.224004  -0.348079  -1.603213
    H  -1.141267   0.086567   2.833837
    H   2.365734  -0.187087   2.115822
    H  -1.951609  -2.339313   1.388841
    H   0.762689  -2.050651   1.908262
    H  -0.216733  -2.970367  -0.935913
    H  -2.512427  -1.422996  -1.631248
    H  -3.408465   0.211208   0.615623
    H  -1.736266   2.420992   0.844810
    H   0.564898   2.059228   2.101384
    H   3.676349  -0.070190  -0.775076
    H   2.027848  -1.935842  -0.891228
    H  -0.273791  -0.422492  -2.779642
    H  -2.092100   1.220672  -1.579228
    H  -0.011161   2.507955  -1.351644
    H   1.640333   0.741800  -2.298346
    H   2.266277   2.459710   0.052401
    C  -1.466196   0.668720  -0.890481
    C   1.334432   0.490635  -1.294067
