32
B14C2H16
    B  -1.076337  -1.111829   1.008836
    B  -0.805806   0.427190   1.899906
    B  -1.842540  -0.600722  -0.599169
    B  -0.653770  -1.839218  -0.526559
    B   0.625060  -0.428096   1.785579
    B   0.658218  -1.826167   0.536764
    B  -0.807497   1.901779   0.421053
    B   1.872428  -0.649192   0.606361
    B   1.112653  -1.073911  -1.071055
    B  -1.076469   1.005693  -1.114996
    B  -0.653790  -0.531266  -1.837897
    B   1.872070   0.604757  -0.650236
    B   0.624653   1.784600  -0.431774
    B   0.658172   0.532130  -1.827266
    H  -2.968739  -0.852839  -0.850304
    H  -2.745867   0.887073   0.885644
    H  -1.121401   0.900253   2.932405
    H  -1.813641  -1.674429   1.747015
    H   1.043895  -0.652508   2.870168
    H   1.018502  -2.886740   0.916935
    H  -1.019536  -2.908868  -0.870531
    H  -1.019504  -0.878095  -2.906640
    H   1.766537  -1.771390  -1.766978
    H  -1.813793   1.742437  -1.679480
    H  -1.124234   2.935566   0.890503
    H   1.824579   1.556818   1.553648
    H   2.948325  -0.915248   1.009981
    H   1.044118   2.868398  -0.658941
    H   2.947925   1.007904  -0.917198
    H   1.018749   0.909731  -2.888659
    C   1.236057   0.913462   0.911835
    C  -1.729015   0.622726   0.621047
