32
B14C2H16
    B   0.393301   1.268331   1.173970
    B  -1.264812   1.431649   0.658908
    B  -0.075583  -1.514357  -0.740842
    B   1.676458  -1.357123  -0.035649
    B  -1.746614  -0.902592  -0.924127
    B  -2.274216   0.011332   0.497236
    B   1.756392  -0.047278   1.208794
    B   0.395261  -1.251709   1.148614
    B  -0.917744   0.009518   1.658265
    B  -1.283766  -1.421879   0.693081
    B  -1.731483   0.879767  -0.938623
    B  -0.039358   1.500488  -0.792019
    B   1.215297   0.006462  -1.453265
    B  -0.497923  -0.028532  -1.772732
    H  -1.036726   0.034503   2.836369
    H   2.516288   0.089440   2.097515
    H  -1.739935  -2.400398   1.174084
    H   0.605621  -2.132213   1.920303
    H   0.107160  -2.553983  -1.281736
    H  -2.484973  -1.546489  -1.585158
    H  -3.404668   0.029197   0.840645
    H  -1.698437   2.426637   1.129603
    H   0.666727   2.139096   1.928974
    H   3.426434   0.115160  -0.586289
    H   2.343387  -2.326304  -0.107468
    H  -0.529297  -0.035050  -2.954322
    H  -2.428921   1.559351  -1.609237
    H   0.139020   2.546132  -1.316294
    H   1.776959   0.168833  -2.480551
    H   2.152072   2.110169  -0.004740
    C   2.388733  -0.006448  -0.321588
    C   1.571383   1.198183   0.009888
