32
B14C2H16
    B   2.602842   0.000117  -0.427597
    B   1.650622   1.307166  -0.088697
    B   0.421032   1.096682   1.212269
    B  -1.259121   1.410377   0.664433
    B  -0.067244  -1.487297  -0.751993
    B   1.651005  -1.306873  -0.087387
    B  -1.711344  -0.900558  -0.947746
    B   0.421323  -1.095334   1.213304
    B  -1.007702   0.000674   1.669598
    B  -1.258682  -1.410039   0.665771
    B  -1.711613   0.899173  -0.948618
    B  -0.067692   1.486584  -0.753423
    B   1.253006  -0.000578  -1.424048
    B  -0.498251  -0.000903  -1.802400
    H  -1.351233   0.001130   2.798255
    H   2.370366   0.001260   1.901910
    H  -1.762764  -2.356265   1.156358
    H   0.674691  -1.869889   2.072623
    H   0.059345  -2.553365  -1.254214
    H  -2.553242  -1.511850  -1.501259
    H  -3.169546  -0.000114   0.734146
    H  -1.763529   2.356887   1.154123
    H   0.674203   1.872141   2.070817
    H   3.769107   0.000260  -0.575085
    H   2.204300  -2.338482   0.063483
    H  -0.622512  -0.001479  -2.977001
    H  -2.553708   1.509660  -1.502717
    H   0.058596   2.552213  -1.256661
    H   1.695678  -0.001090  -2.523304
    H   2.203667   2.339062   0.061112
    C  -2.129496  -0.000084   0.443574
    C   1.753934   0.000706   1.011982
