32
B14C2H16
    B   2.588320   0.065287  -0.449840
    B   1.679222   1.417110   0.101786
    B   0.430133   1.016461   1.308809
    B  -1.203013   1.382171   0.611469
    B  -0.257452  -1.834205  -0.453624
    B   1.344743  -1.104881  -0.430348
    B  -1.716210  -0.993345  -0.862041
    B  -2.283041   0.035341   0.454069
    B   1.878940  -0.043269   1.052161
    B   0.306643  -1.137391   1.179347
    B  -1.052301   0.030945   1.705640
    B  -1.407234  -1.449778   0.826207
    B   0.049035   1.491318  -0.763287
    B  -0.208978  -0.388251  -1.607767
    H  -1.331812   0.147570   2.847162
    H   2.534646  -0.229535   2.015161
    H  -1.956434  -2.348783   1.360171
    H   0.723977  -1.870539   2.009143
    H  -0.198383  -2.959019  -0.807713
    H  -2.481057  -1.440488  -1.640510
    H  -3.441804   0.225083   0.557645
    H  -1.633144   2.462299   0.814310
    H   0.613181   1.744394   2.229613
    H   3.685142  -0.012136  -0.865646
    H   1.989833  -1.956459  -0.947684
    H  -0.247644  -0.476907  -2.783285
    H  -2.071827   1.220168  -1.598851
    H  -0.021148   2.523437  -1.334470
    H   1.623533   0.797214  -2.326063
    H   2.162445   2.493493   0.091999
    C  -1.455150   0.673481  -0.899728
    C   1.332875   0.519106  -1.322227
