32
B14C2H16
    B   2.604317   0.000108  -0.424991
    B   1.659352   1.307227  -0.076884
    B   0.414890   1.142664   1.178590
    B  -1.268942   1.411509   0.671998
    B  -0.066845  -1.497006  -0.744889
    B   1.659778  -1.306944  -0.075493
    B  -1.718168  -0.897790  -0.945223
    B   0.415237  -1.141378   1.179766
    B  -0.984574   0.000662   1.665227
    B  -1.268506  -1.411204   0.673310
    B  -1.718442   0.896412  -0.946058
    B  -0.067358   1.496384  -0.746247
    B   1.253284  -0.000639  -1.425912
    B  -0.493431  -0.000883  -1.793474
    H  -1.309597   0.001145   2.799508
    H   2.325427   0.001294   1.921329
    H  -1.777974  -2.349932   1.172844
    H   0.664761  -1.923725   2.033503
    H   0.062838  -2.561537  -1.248922
    H  -2.557122  -1.510823  -1.501513
    H  -3.161600  -0.000110   0.739761
    H  -1.778717   2.350523   1.170681
    H   0.664234   1.925955   2.031514
    H   3.769768   0.000238  -0.580128
    H   2.222058  -2.335203   0.069121
    H  -0.618883  -0.001442  -2.968530
    H  -2.557570   1.508667  -1.502943
    H   0.062040   2.560474  -1.251277
    H   1.710063  -0.001146  -2.520133
    H   2.221434   2.335748   0.066646
    C  -2.121580  -0.000091   0.439646
    C   1.735865   0.000734   1.010780
