32
B14C2H16
    B  -1.017400  -1.012531   1.033941
    B  -0.599936   0.659905   1.848502
    B  -1.898000   0.576947   0.711109
    B  -1.906052  -0.528731  -0.596474
    B  -0.257546  -1.476384  -1.023881
    B   0.572377  -0.600034   1.831532
    B   0.589680  -1.797040   0.560366
    B  -0.628331   1.816201   0.542639
    B   1.039863   1.062414   1.073295
    B   1.906885  -0.609991   0.753125
    B  -1.387979   1.193355  -0.919741
    B   1.809367   0.517628  -0.635953
    B   0.533948   1.647232  -0.702579
    B   0.659423   0.048489  -1.835836
    H  -2.916550  -1.082861  -0.845995
    H  -2.958960   0.779269   1.192920
    H  -0.871293   1.037787   2.934463
    H  -1.696783  -1.817929   1.572515
    H   0.827984  -0.929184   2.938791
    H   0.728633  -2.948145   0.769297
    H  -0.459873  -2.517923  -1.541538
    H  -1.343443  -0.338507  -2.774676
    H   2.108679  -1.781619  -1.265581
    H  -2.048265   1.960258  -1.529451
    H  -0.887902   2.941561   0.800443
    H   1.740117   1.787002   1.690026
    H   2.994944  -0.863526   1.128772
    H   0.841529   2.650789  -1.247510
    H   2.856536   0.894620  -1.025497
    H   1.161168   0.035822  -2.905627
    C  -0.922251  -0.166342  -1.797785
    C   1.429434  -1.138532  -0.733617
