32
B14C2H16
    B   2.581288   0.091884  -0.456857
    B   1.631687   1.419975   0.115281
    B   0.443238   0.923646   1.385113
    B  -1.162217   1.387318   0.603911
    B  -0.248010  -1.820277  -0.421310
    B   1.355417  -1.102246  -0.472595
    B  -1.711790  -0.995575  -0.856046
    B  -2.278583   0.049366   0.446791
    B   1.890343  -0.059454   1.036460
    B   0.297427  -1.114297   1.218179
    B  -1.077150   0.046163   1.718179
    B  -1.418734  -1.439099   0.832489
    B   0.037142   1.479836  -0.847941
    B  -0.192912  -0.404108  -1.603750
    H  -1.402457   0.179443   2.845839
    H   2.579335  -0.247505   1.976818
    H  -1.970856  -2.342130   1.356259
    H   0.712058  -1.855424   2.041561
    H  -0.186196  -2.950726  -0.757732
    H  -2.478585  -1.446844  -1.629784
    H  -3.435829   0.253756   0.538698
    H  -1.557699   2.482366   0.795139
    H   0.648787   1.614423   2.329374
    H   3.679209   0.028612  -0.872487
    H   1.990211  -1.944974  -1.013398
    H  -0.235478  -0.521196  -2.776990
    H  -2.073856   1.217731  -1.594803
    H  -0.038154   2.504068  -1.432566
    H   1.633019   0.838212  -2.325538
    H   2.086486   2.508684   0.126882
    C  -1.446212   0.673382  -0.903178
    C   1.325110   0.544880  -1.330388
