32
B14C2H16
    B   2.580930  -0.000240  -0.406818
    B   1.657293   1.327065  -0.029867
    B   0.393488   1.229313   1.166750
    B  -1.292371   1.415345   0.714736
    B  -0.112260  -1.586911  -0.671423
    B   1.640966  -1.322032  -0.035155
    B  -1.688656  -0.913776  -0.926325
    B  -2.271848  -0.012289   0.487033
    B   1.821242   0.002373   1.143417
    B   0.382663  -1.229830   1.166264
    B  -0.955439  -0.010309   1.682455
    B  -1.312708  -1.441917   0.715562
    B  -0.095406   1.558703  -0.654787
    B  -0.392784  -0.028208  -1.727120
    H  -1.163925   0.015613   2.845578
    H   2.453158   0.004259   2.141439
    H  -1.817698  -2.405477   1.177764
    H   0.632341  -2.051928   1.985859
    H   0.052709  -2.584388  -1.282762
    H  -2.468735  -1.390404  -1.670478
    H  -3.435777   0.084521   0.646073
    H  -1.843873   2.404305   1.045674
    H   0.605889   2.074956   1.972705
    H   3.660789  -0.000530  -0.875832
    H   2.204937  -2.344159  -0.215922
    H  -0.525852   0.058471  -2.896070
    H  -2.234355   1.358640  -1.470677
    H  -0.021519   2.550357  -1.288401
    H   1.651039   0.054225  -2.304234
    H   2.180434   2.365725  -0.236676
    C  -1.560349   0.797741  -0.833920
    C   1.251714   0.020679  -1.293233
