32
B14C2H16
    B   2.579502   0.094361  -0.458847
    B   1.627291   1.420569   0.118248
    B   0.444240   0.915644   1.390843
    B  -1.159185   1.388103   0.604194
    B  -0.248079  -1.820350  -0.421842
    B   1.357956  -1.104365  -0.471061
    B  -1.711519  -0.993768  -0.856716
    B  -2.278405   0.050142   0.446484
    B   1.890299  -0.060403   1.035282
    B   0.297014  -1.111545   1.216481
    B  -1.079081   0.048355   1.718981
    B  -1.420166  -1.438076   0.832917
    B   0.035809   1.478563  -0.852370
    B  -0.191288  -0.404354  -1.605445
    H  -1.406979   0.183170   2.845734
    H   2.583096  -0.250291   1.972530
    H  -1.969298  -2.341366   1.359313
    H   0.710830  -1.851988   2.041142
    H  -0.185617  -2.951083  -0.756863
    H  -2.479392  -1.447384  -1.628059
    H  -3.435531   0.255729   0.537859
    H  -1.551066   2.484710   0.794184
    H   0.651767   1.604633   2.336019
    H   3.678030   0.031034  -0.872980
    H   1.992327  -1.947313  -1.011955
    H  -0.234533  -0.524011  -2.778378
    H  -2.073385   1.216262  -1.595122
    H  -0.039242   2.500396  -1.441486
    H   1.632002   0.843701  -2.325778
    H   2.079001   2.510554   0.132438
    C  -1.445052   0.673294  -0.902956
    C   1.324695   0.546970  -1.331182
