32
B14C2H16
    B   1.695252   1.333609  -0.022559
    B   0.403995   1.286910   1.138651
    B  -1.260371   1.417719   0.688413
    B  -0.066705  -1.528245  -0.738980
    B   1.689013  -1.341418  -0.021183
    B  -1.724863  -0.906505  -0.916794
    B  -2.255824  -0.013446   0.504146
    B   1.745551   0.003610   1.185398
    B   0.395359  -1.284127   1.135742
    B  -0.896264  -0.005399   1.664454
    B  -1.277392  -1.441503   0.696703
    B  -0.059963   1.522739  -0.730342
    B   1.270825   0.024716  -1.439329
    B  -0.461305  -0.014145  -1.734655
    H  -1.073996   0.018956   2.833092
    H   2.443732   0.007391   2.136228
    H  -1.780503  -2.402107   1.165707
    H   0.601186  -2.158677   1.912626
    H   0.065580  -2.552714  -1.318505
    H  -2.519283  -1.415599  -1.622490
    H  -3.407932   0.077765   0.734672
    H  -1.812068   2.396749   1.046114
    H   0.578496   2.173508   1.908622
    H   3.459902  -0.002116  -0.607733
    H   2.311621  -2.342449  -0.073453
    H  -0.613679   0.054328  -2.902142
    H  -2.296944   1.374618  -1.438383
    H  -0.028820   2.549475  -1.313826
    H   1.740745   0.031614  -2.524441
    H   2.301835   2.342548  -0.104571
    C  -1.608051   0.797564  -0.838217
    C   2.416910  -0.005477  -0.331357
