32
B14C2H16
    B  -1.541536  -0.774856   1.236140
    B  -0.643623   0.583931   1.815496
    B  -1.914273   0.781777   0.555354
    B  -1.769965  -0.556696  -0.560947
    B  -0.826473  -1.871526   0.078065
    B   0.234906  -1.041287   1.430515
    B  -0.560895   1.881096   0.694494
    B   1.011223   1.068248   1.008486
    B   1.502449  -0.781409  -1.295698
    B  -1.057026   1.197868  -0.959053
    B  -0.240056  -1.127579  -1.434744
    B   1.865566   0.779422  -0.584311
    B   0.537666   1.871183  -0.645133
    B   0.527620   0.560590  -1.793434
    H  -2.752618  -0.858979  -1.144922
    H  -2.986831   1.246007   0.737981
    H  -0.684495   0.827381   2.971215
    H  -2.254500  -1.339940   1.993549
    H   0.646156  -1.671984   2.337452
    H   1.306688  -2.672163  -0.007274
    H  -1.158717  -3.004443   0.060336
    H  -0.391696  -1.839377  -2.366810
    H   2.341357  -1.338060  -1.905497
    H  -1.726344   1.765949  -1.751075
    H  -0.702864   2.967020   1.142806
    H   1.761015   1.501452   1.810030
    H   2.564456  -0.840588   0.922417
    H   0.831242   2.943737  -1.048493
    H   2.979589   1.148888  -0.707136
    H   0.644911   0.824169  -2.939689
    C   1.657492  -0.508380   0.440359
    C   0.799576  -1.721452  -0.090482
