32
B14C2H16
    B   2.574011   0.014677  -0.406197
    B   1.656092   1.334153  -0.017825
    B   0.391801   1.227894   1.172098
    B  -1.286552   1.411938   0.703271
    B  -0.092694  -1.548822  -0.694849
    B   1.645267  -1.310921  -0.035599
    B  -1.685997  -0.903333  -0.926870
    B  -2.265356  -0.011602   0.485552
    B   1.818798   0.007992   1.149229
    B   0.389171  -1.224635   1.169182
    B  -0.955823  -0.009281   1.679354
    B  -1.300451  -1.436603   0.703674
    B  -0.085919   1.537441  -0.662553
    B  -0.409820  -0.010669  -1.720271
    H  -1.171787   0.016959   2.839634
    H   2.460471   0.009173   2.139538
    H  -1.805069  -2.404824   1.152496
    H   0.627225  -2.053084   1.983580
    H   0.067614  -2.543929  -1.308716
    H  -2.452313  -1.406108  -1.665573
    H  -3.425878   0.070721   0.664603
    H  -1.828755   2.400156   1.046332
    H   0.589591   2.077665   1.975196
    H   3.647596   0.020565  -0.885782
    H   2.190638  -2.340449  -0.218921
    H  -0.525714   0.071037  -2.889874
    H  -2.221276   1.379226  -1.467279
    H  -0.007259   2.537183  -1.280412
    H   1.606946  -0.122328  -2.284655
    H   2.164238   2.379581  -0.217141
    C  -1.564161   0.806130  -0.832723
    C   1.231403   0.023992  -1.276888
