32
B14C2H16
    B  -1.532396  -0.775776   1.229643
    B  -0.645545   0.590167   1.814753
    B  -1.909764   0.788142   0.555492
    B  -1.745042  -0.535207  -0.586277
    B  -0.825956  -1.867411   0.083871
    B   0.226476  -1.046330   1.429204
    B  -0.563706   1.892794   0.701838
    B   1.007219   1.057383   1.013010
    B   1.499766  -0.783422  -1.298034
    B  -1.080140   1.241567  -0.947634
    B  -0.215164  -1.185011  -1.433745
    B   1.860892   0.773912  -0.581619
    B   0.531733   1.878372  -0.648834
    B   0.490152   0.547571  -1.783742
    H  -2.720138  -0.840858  -1.181818
    H  -2.992494   1.226814   0.744598
    H  -0.689195   0.819271   2.973290
    H  -2.250826  -1.324331   1.993308
    H   0.647215  -1.671650   2.335259
    H   1.311240  -2.675251  -0.009766
    H  -1.179719  -2.993352   0.059246
    H  -0.351226  -1.916577  -2.350768
    H   2.358399  -1.315088  -1.903422
    H  -1.748030   1.823106  -1.731528
    H  -0.689243   2.976399   1.160585
    H   1.770350   1.483051   1.807422
    H   2.560717  -0.834350   0.927363
    H   0.844655   2.940333  -1.065252
    H   2.968317   1.158048  -0.713214
    H   0.604382   0.802658  -2.932685
    C   1.653540  -0.509242   0.440064
    C   0.803530  -1.725736  -0.100611
