32
B14C2H16
    B  -0.635515   0.504073   1.787537
    B  -1.829351   0.650489   0.575190
    B  -1.871344  -0.651621  -0.635933
    B  -0.654458  -1.820219  -0.491420
    B   0.693909  -0.508197   1.845281
    B   0.697675  -1.837529   0.503825
    B  -0.615427   1.824234   0.444841
    B   1.179342   1.028343   1.065469
    B   1.871668  -0.635896   0.634184
    B   1.141357  -1.012313  -1.035424
    B  -1.205000   0.990520  -1.101979
    B  -0.684702  -0.521958  -1.833339
    B   1.841817   0.644506  -0.607126
    B   0.593430   0.557444  -1.800074
    H  -2.968654  -1.017409  -0.858093
    H  -2.905531   0.959086   0.937727
    H  -1.047973   0.783403   2.856088
    H  -1.700825  -1.569741   1.598764
    H   0.971269  -0.868190   2.933154
    H   0.974517  -2.917453   0.888966
    H  -1.048010  -2.907238  -0.725061
    H  -1.001105  -0.893191  -2.907649
    H   1.776222  -1.696283  -1.759575
    H  -1.822382   1.719789  -1.792530
    H  -0.941412   2.910625   0.769846
    H   1.788825   1.767953   1.751355
    H   2.959713  -0.967371   0.947715
    H   1.029234   2.696042  -0.713155
    H   2.898698   1.029241  -0.957521
    H   0.932520   0.995962  -2.840118
    C   0.688976   1.713901  -0.424751
    C  -1.107481  -0.951002   0.943801
