32
B14C2H16
    B   2.586822   0.057203  -0.458892
    B   1.690195   1.417944   0.116335
    B   0.428454   1.017824   1.309579
    B  -1.196071   1.377424   0.601598
    B  -0.257529  -1.846143  -0.450999
    B   1.311137  -1.084306  -0.446224
    B  -1.726536  -1.003740  -0.856570
    B  -2.285594   0.036533   0.452426
    B   1.883303  -0.048906   1.048236
    B   0.304834  -1.134744   1.176097
    B  -1.054458   0.030179   1.698194
    B  -1.404572  -1.451119   0.833801
    B   0.061166   1.492443  -0.762596
    B  -0.205497  -0.414014  -1.598407
    H  -1.336810   0.150992   2.838926
    H   2.532536  -0.248162   2.012860
    H  -1.951200  -2.345766   1.377943
    H   0.725025  -1.853100   2.016629
    H  -0.200585  -2.973548  -0.796932
    H  -2.487564  -1.451912  -1.638175
    H  -3.443694   0.232619   0.551101
    H  -1.618407   2.461672   0.800588
    H   0.604410   1.746640   2.231005
    H   3.677054  -0.030141  -0.889962
    H   1.971160  -1.917314  -0.977550
    H  -0.222204  -0.507294  -2.773781
    H  -2.057306   1.202976  -1.614137
    H  -0.013603   2.532184  -1.319846
    H   1.605195   0.839937  -2.314585
    H   2.176925   2.492807   0.118652
    C  -1.446535   0.660683  -0.906556
    C   1.325988   0.560039  -1.307151
