32
B14C2H16
    B   2.588197   0.022217  -0.370910
    B   1.630638   1.355049  -0.055720
    B   0.387479   1.277628   1.149560
    B  -1.295037   1.412206   0.715394
    B  -0.205483  -1.747888  -0.599274
    B   1.548265  -1.282313  -0.194988
    B  -1.679108  -0.925808  -0.905972
    B  -2.257805   0.003261   0.473120
    B   1.763962   0.013629   1.128956
    B   0.350147  -1.288530   1.098174
    B  -0.918748  -0.006455   1.685038
    B  -1.352973  -1.459310   0.769812
    B  -0.101782   1.616555  -0.633940
    B  -0.284080  -0.132768  -1.664587
    H  -1.099673   0.043343   2.851469
    H   2.372009  -0.037024   2.139388
    H  -1.922934  -2.356165   1.286458
    H   0.717243  -2.095486   1.890054
    H  -0.114786  -2.789454  -1.149156
    H  -2.468135  -1.381208  -1.654578
    H  -3.422464   0.098412   0.631192
    H  -1.859816   2.395170   1.045486
    H   0.616718   2.114211   1.958877
    H   3.711006   0.014038  -0.722074
    H   2.177103  -2.250771  -0.455767
    H  -0.469349  -0.101035  -2.833103
    H  -2.187487   1.308601  -1.508440
    H  -0.039124   2.593566  -1.291682
    H   1.739322   0.285634  -2.358368
    H   2.224612   2.372543  -0.160488
    C  -1.524253   0.780242  -0.837387
    C   1.352372   0.147802  -1.354936
