32
B14C2H16
    B   0.397830   1.224021   1.172867
    B  -1.262440   1.433397   0.656527
    B  -0.071857  -1.511595  -0.752589
    B   1.675333  -1.337787  -0.044847
    B  -1.742273  -0.902592  -0.932091
    B  -2.272425   0.010824   0.495359
    B   1.787848  -0.034470   1.196608
    B   0.405284  -1.229325   1.168697
    B  -0.934365   0.013130   1.661676
    B  -1.271339  -1.422295   0.685521
    B  -1.737211   0.884333  -0.944465
    B  -0.037201   1.491847  -0.783028
    B   1.204416  -0.011180  -1.433722
    B  -0.508534  -0.022494  -1.790678
    H  -1.075566   0.039648   2.836332
    H   2.513778   0.057740   2.116244
    H  -1.715212  -2.405331   1.167675
    H   0.627981  -2.071603   1.975922
    H   0.108689  -2.547756  -1.297323
    H  -2.477722  -1.552188  -1.589794
    H  -3.401757   0.031233   0.840546
    H  -1.684650   2.436091   1.118299
    H   0.666460   2.088795   1.937541
    H   3.424375   0.123139  -0.618759
    H   2.314499  -2.325185  -0.101389
    H  -0.542405  -0.023848  -2.970724
    H  -2.439282   1.560965  -1.611475
    H   0.154803   2.532524  -1.311026
    H   1.755470   0.167319  -2.463196
    H   2.141965   2.112773  -0.004713
    C   2.395841  -0.002648  -0.323719
    C   1.575707   1.192413   0.015334
