32
B14C2H16
    B  -1.146777  -1.032280   1.056523
    B  -0.660717   0.507836   1.838139
    B  -1.850386   0.639448   0.634021
    B  -1.842114  -0.636144  -0.625641
    B  -0.640950  -1.831375  -0.491024
    B   0.649616  -0.523248   1.824703
    B  -0.663625   1.847871   0.502112
    B   1.147866   1.038516   1.036624
    B   1.152447  -1.035587  -1.052229
    B  -1.159439   1.042547  -1.047048
    B  -0.655762  -0.510050  -1.841113
    B   1.850954   0.622737  -0.629123
    B   0.662022   1.842708  -0.508476
    B   0.663202   0.504271  -1.848061
    H  -2.931480  -0.983958  -0.946190
    H  -2.945976   0.958978   0.965261
    H  -1.000698   0.844817   2.926246
    H  -1.775069  -1.747154   1.767962
    H   1.015545  -0.894024   2.892149
    H   0.997393  -2.802284   0.832754
    H  -0.969504  -2.926248  -0.815561
    H  -1.004374  -0.868969  -2.920203
    H   1.819212  -1.748183  -1.727744
    H  -1.816385   1.737468  -1.753882
    H  -1.014862   2.930985   0.847662
    H   1.818959   1.712462   1.747888
    H   2.831724  -0.964550   0.940509
    H   1.028381   2.919953  -0.854143
    H   2.955338   0.929288  -0.939487
    H   1.028016   0.843239  -2.927674
    C   1.808683  -0.630259   0.621680
    C   0.648762  -1.788813   0.493363
