32
B14C2H16
    B   2.599441   0.000139  -0.435512
    B   1.652009   1.304475  -0.072589
    B   0.424467   1.072723   1.236504
    B  -1.250253   1.410041   0.652742
    B  -0.064299  -1.477235  -0.771205
    B   1.652372  -1.304106  -0.071308
    B  -1.715262  -0.900704  -0.950052
    B   0.424770  -1.071400   1.237564
    B  -1.010406   0.000665   1.667375
    B  -1.249849  -1.409760   0.654104
    B  -1.715514   0.899299  -0.950922
    B  -0.064716   1.476465  -0.772617
    B   1.223359  -0.000533  -1.407511
    B  -0.510917  -0.000952  -1.822708
    H  -1.362781   0.001159   2.793434
    H   2.388610   0.001254   1.902184
    H  -1.744776  -2.361975   1.142585
    H   0.670633  -1.836983   2.107087
    H   0.071200  -2.546861  -1.262325
    H  -2.553131  -1.520076  -1.500884
    H  -3.163692  -0.000091   0.737116
    H  -1.745453   2.362587   1.140302
    H   0.670125   1.839225   2.105274
    H   3.761933   0.000219  -0.609978
    H   2.187726  -2.346245   0.068144
    H  -0.632722  -0.001531  -2.997252
    H  -2.553556   1.517901  -1.502356
    H   0.070485   2.545654  -1.264771
    H   1.684505  -0.001003  -2.500679
    H   2.187080   2.346896   0.065841
    C  -2.124766  -0.000087   0.440488
    C   1.769418   0.000733   1.013533
