32
B14C2H16
    B  -1.535457  -0.774050   1.223323
    B  -0.643698   0.584385   1.814404
    B  -1.910309   0.792316   0.555134
    B  -1.722979  -0.525021  -0.599033
    B  -0.822900  -1.871421   0.082364
    B   0.218117  -1.057540   1.434844
    B  -0.560036   1.893238   0.707917
    B   1.010601   1.056702   1.008322
    B   1.500353  -0.783175  -1.295973
    B  -1.079118   1.255821  -0.938736
    B  -0.205830  -1.197388  -1.433657
    B   1.852514   0.777509  -0.587537
    B   0.528857   1.880654  -0.649700
    B   0.467710   0.540803  -1.778982
    H  -2.697851  -0.824804  -1.198719
    H  -2.998149   1.219136   0.739021
    H  -0.687798   0.813029   2.973304
    H  -2.263789  -1.320627   1.979147
    H   0.648319  -1.677502   2.339757
    H   1.319381  -2.675649  -0.000601
    H  -1.184133  -2.994814   0.062389
    H  -0.338843  -1.939619  -2.342598
    H   2.354820  -1.318376  -1.903874
    H  -1.744306   1.848798  -1.716312
    H  -0.679662   2.975188   1.172365
    H   1.772701   1.494620   1.797073
    H   2.561228  -0.828447   0.925833
    H   0.845959   2.941387  -1.065587
    H   2.960605   1.160573  -0.720577
    H   0.573866   0.787881  -2.930732
    C   1.652272  -0.505655   0.440014
    C   0.807553  -1.727953  -0.092595
