32
B14C2H16
    B   1.694687   1.328310  -0.021470
    B   0.405930   1.248269   1.150157
    B  -1.263921   1.414946   0.690822
    B  -0.061055  -1.515078  -0.744290
    B   1.689114  -1.338348  -0.019648
    B  -1.718775  -0.908209  -0.918081
    B  -2.264211  -0.014384   0.500163
    B   1.772103   0.001920   1.176874
    B   0.400570  -1.244267   1.154670
    B  -0.930910  -0.005949   1.668803
    B  -1.276977  -1.436786   0.691963
    B  -0.058664   1.513140  -0.733107
    B   1.264812   0.018024  -1.437840
    B  -0.467134  -0.010323  -1.742165
    H  -1.107877   0.015827   2.837501
    H   2.482945   0.008448   2.118378
    H  -1.757535  -2.411823   1.154315
    H   0.598116  -2.109406   1.944428
    H   0.071008  -2.547100  -1.310204
    H  -2.512950  -1.417462  -1.624189
    H  -3.419022   0.075801   0.717245
    H  -1.797430   2.406449   1.041087
    H   0.580799   2.125340   1.931842
    H   3.463411  -0.002976  -0.623739
    H   2.300311  -2.346219  -0.066666
    H  -0.622996   0.061106  -2.908739
    H  -2.295355   1.379549  -1.439852
    H  -0.020829   2.546618  -1.303884
    H   1.726179   0.021357  -2.526810
    H   2.286160   2.345688  -0.104488
    C  -1.606669   0.803172  -0.839347
    C   2.422204  -0.005744  -0.342122
