32
B14C2H16
    B   0.389370   1.326348   1.151003
    B  -1.259418   1.433584   0.654675
    B  -0.086920  -1.544368  -0.729903
    B   1.679455  -1.361370  -0.043404
    B  -1.750349  -0.906579  -0.918337
    B  -2.261640   0.015908   0.501974
    B   1.710335  -0.047743   1.212790
    B   0.388765  -1.303589   1.115671
    B  -0.866213   0.009821   1.654312
    B  -1.289490  -1.432943   0.705662
    B  -1.731747   0.869566  -0.943357
    B  -0.036914   1.507949  -0.794077
    B   1.228422   0.041932  -1.456795
    B  -0.480751  -0.045322  -1.758346
    H  -0.979713   0.041574   2.832397
    H   2.442397   0.069779   2.126946
    H  -1.769976  -2.389100   1.206731
    H   0.610446  -2.193589   1.872552
    H   0.095503  -2.569741  -1.296124
    H  -2.491892  -1.541173  -1.584381
    H  -3.385653   0.043742   0.864869
    H  -1.713542   2.417186   1.129984
    H   0.664899   2.208634   1.890828
    H   3.421672   0.120483  -0.562487
    H   2.348584  -2.328467  -0.122244
    H  -0.525447  -0.054347  -2.940284
    H  -2.441708   1.539020  -1.610342
    H   0.146604   2.546038  -1.330636
    H   1.797245   0.225364  -2.476483
    H   2.169749   2.104883   0.003824
    C   2.381876  -0.007100  -0.306978
    C   1.572088   1.203510   0.021566
