32
B14C2H16
    B   0.405999   1.212949   1.163196
    B  -1.255259   1.430768   0.659674
    B  -0.065060  -1.504752  -0.754746
    B   1.677426  -1.318005  -0.041551
    B  -1.737165  -0.899094  -0.934728
    B  -2.268928   0.008632   0.495343
    B   1.791203  -0.022188   1.185878
    B   0.411648  -1.222110   1.168095
    B  -0.930889   0.009601   1.661093
    B  -1.265546  -1.424222   0.682190
    B  -1.732098   0.886538  -0.943098
    B  -0.030920   1.488468  -0.775342
    B   1.208336  -0.000597  -1.414119
    B  -0.499233  -0.013261  -1.785900
    H  -1.089877   0.030757   2.833286
    H   2.478991   0.043579   2.136366
    H  -1.711890  -2.406817   1.162430
    H   0.631855  -2.057223   1.982221
    H   0.100543  -2.541004  -1.302896
    H  -2.474854  -1.546064  -1.591866
    H  -3.397896   0.026281   0.840265
    H  -1.682870   2.430427   1.122091
    H   0.658088   2.071471   1.939331
    H   3.448184   0.106890  -0.631036
    H   2.288013  -2.323452  -0.085210
    H  -0.555127  -0.011224  -2.964654
    H  -2.446099   1.554136  -1.605913
    H   0.151391   2.527584  -1.309814
    H   1.736161   0.131514  -2.462464
    H   2.125695   2.131198  -0.029392
    C   2.418212   0.006256  -0.325870
    C   1.588006   1.192855  -0.001251
