32
B14C2H16
    B  -1.534638  -0.774474   1.227787
    B  -0.646816   0.587467   1.815304
    B  -1.910131   0.790096   0.555064
    B  -1.732449  -0.530361  -0.592274
    B  -0.822537  -1.870076   0.084960
    B   0.222242  -1.051702   1.433186
    B  -0.561710   1.892975   0.705945
    B   1.007433   1.054700   1.010476
    B   1.498545  -0.782772  -1.297247
    B  -1.077051   1.248355  -0.943160
    B  -0.210038  -1.191704  -1.434983
    B   1.854872   0.775303  -0.584036
    B   0.528958   1.880311  -0.649953
    B   0.475641   0.545776  -1.781037
    H  -2.706666  -0.833698  -1.190997
    H  -2.996006   1.222512   0.738578
    H  -0.692210   0.814915   2.974381
    H  -2.258805  -1.320943   1.987420
    H   0.654548  -1.671718   2.337127
    H   1.316537  -2.676404  -0.004890
    H  -1.184096  -2.993366   0.060268
    H  -0.343430  -1.930439  -2.346551
    H   2.354471  -1.317256  -1.904089
    H  -1.740748   1.837058  -1.725216
    H  -0.681320   2.976040   1.167805
    H   1.773432   1.486289   1.799168
    H   2.559511  -0.830682   0.926634
    H   0.847393   2.941297  -1.064004
    H   2.961658   1.162180  -0.716333
    H   0.586281   0.796119  -2.931643
    C   1.650766  -0.508036   0.439908
    C   0.806364  -1.727762  -0.097599
