32
B14C2H16
    B  -1.570975  -0.765644   1.274263
    B  -0.653827   0.556531   1.794449
    B  -1.966213   0.750666   0.602495
    B  -1.795117  -0.661524  -0.466015
    B  -0.653510  -1.859010   0.051819
    B   0.258925  -0.975238   1.400076
    B  -0.586956   1.800179   0.633688
    B   0.972729   0.978336   1.013247
    B   1.422849  -0.848339  -1.231274
    B  -1.038457   1.069798  -1.042098
    B  -0.518374  -0.708387  -1.626383
    B   1.881013   0.734408  -0.577418
    B   0.579677   1.849581  -0.632064
    B   0.619454   0.572347  -1.827160
    H  -2.800093  -1.051485  -0.955958
    H  -3.003477   1.289225   0.761146
    H  -0.642596   0.854325   2.936457
    H  -2.255111  -1.430418   1.973143
    H   0.613095  -1.502998   2.394457
    H   1.470848  -2.692622   0.230912
    H  -1.120162  -2.942399  -0.009478
    H  -0.698241  -1.369859  -2.589320
    H   2.189877  -1.418026  -1.920074
    H  -1.695778   1.661336  -1.824485
    H  -0.741533   2.918021   0.986820
    H   1.685623   1.454401   1.820724
    H   2.661080  -0.795055   0.899434
    H   0.892128   2.949430  -0.919856
    H   2.985147   1.128287  -0.687588
    H   0.878507   0.813002  -2.954601
    C   1.717070  -0.572207   0.431935
    C   0.912398  -1.786663   0.058704
