32
B14C2H16
    B  -1.536364  -0.789017   1.259780
    B  -0.628042   0.577199   1.813551
    B  -1.922880   0.760080   0.582915
    B  -1.822947  -0.579135  -0.503920
    B  -0.820623  -1.865163   0.058725
    B   0.206872  -1.088913   1.445251
    B  -0.561362   1.852462   0.661690
    B   1.012731   1.071955   1.007010
    B   1.498881  -0.787662  -1.280066
    B  -1.032168   1.070860  -1.012412
    B  -0.328262  -0.960707  -1.480798
    B   1.885949   0.777546  -0.579465
    B   0.548758   1.876013  -0.661116
    B   0.606278   0.584461  -1.819467
    H  -2.817013  -0.913652  -1.051636
    H  -2.979748   1.259744   0.760070
    H  -0.668996   0.823896   2.969565
    H  -2.241836  -1.337552   2.034686
    H   0.657784  -1.697442   2.347829
    H   1.319738  -2.657662   0.028749
    H  -1.159893  -2.993567  -0.006508
    H  -0.497718  -1.656548  -2.422413
    H   2.313039  -1.387466  -1.885640
    H  -1.697596   1.637553  -1.810578
    H  -0.727344   2.945524   1.084150
    H   1.775066   1.529481   1.785971
    H   2.565783  -0.820545   0.949428
    H   0.817348   2.965503  -1.032150
    H   2.996065   1.167525  -0.675829
    H   0.772791   0.843354  -2.960645
    C   1.658931  -0.499294   0.455004
    C   0.806781  -1.708831  -0.061731
