32
B14C2H16
    B   2.582075   0.088816  -0.455337
    B   1.636963   1.419620   0.115000
    B   0.441060   0.931435   1.376217
    B  -1.168838   1.386881   0.605043
    B  -0.247928  -1.819401  -0.422464
    B   1.355802  -1.104921  -0.477335
    B  -1.713425  -0.994855  -0.857250
    B  -2.281017   0.047404   0.447917
    B   1.889235  -0.060584   1.037597
    B   0.295220  -1.116113   1.215690
    B  -1.075383   0.045734   1.716758
    B  -1.417896  -1.439910   0.833925
    B   0.038040   1.478707  -0.839346
    B  -0.190674  -0.400851  -1.601019
    H  -1.397110   0.178791   2.845585
    H   2.572590  -0.250088   1.981592
    H  -1.966859  -2.343239   1.360366
    H   0.710695  -1.852142   2.043134
    H  -0.188954  -2.949065  -0.762407
    H  -2.478496  -1.451063  -1.629585
    H  -3.438661   0.250465   0.537814
    H  -1.562228   2.482617   0.796587
    H   0.646298   1.626863   2.317297
    H   3.679478   0.025383  -0.872536
    H   1.993782  -1.944544  -1.019225
    H  -0.237327  -0.520859  -2.773911
    H  -2.071709   1.216360  -1.597426
    H  -0.037067   2.505206  -1.420064
    H   1.633004   0.838842  -2.325298
    H   2.095969   2.506507   0.125766
    C  -1.447793   0.672868  -0.901749
    C   1.327190   0.545028  -1.329728
