32
B14C2H16
    B   0.388757   1.346487   1.138159
    B  -1.259540   1.435896   0.654014
    B  -0.091368  -1.553082  -0.731756
    B   1.673369  -1.357818  -0.046901
    B  -1.749547  -0.904249  -0.917738
    B  -2.256360   0.015448   0.503507
    B   1.692200  -0.052097   1.220783
    B   0.386724  -1.328208   1.113618
    B  -0.844168   0.009449   1.650911
    B  -1.286131  -1.432415   0.703727
    B  -1.735723   0.867877  -0.943295
    B  -0.037535   1.510408  -0.792708
    B   1.230378   0.038447  -1.455937
    B  -0.479699  -0.043073  -1.757123
    H  -0.959965   0.038243   2.828795
    H   2.422522   0.064354   2.136464
    H  -1.778160  -2.381819   1.207138
    H   0.615352  -2.218333   1.867388
    H   0.090496  -2.577449  -1.299490
    H  -2.494954  -1.539082  -1.579486
    H  -3.377707   0.041863   0.874566
    H  -1.718936   2.413869   1.135434
    H   0.659505   2.236777   1.870124
    H   3.419594   0.116938  -0.548953
    H   2.354817  -2.316197  -0.133453
    H  -0.520114  -0.050312  -2.939187
    H  -2.443908   1.539471  -1.609832
    H   0.144344   2.544657  -1.337404
    H   1.802182   0.216668  -2.474728
    H   2.176380   2.109476   0.008456
    C   2.377395  -0.002257  -0.299184
    C   1.575838   1.209952   0.025699
