32
B14C2H16
    B   1.692748   1.309741  -0.037062
    B   0.417002   1.218821   1.155142
    B  -1.257669   1.415164   0.663809
    B  -0.060967  -1.493283  -0.756879
    B   1.687205  -1.305490  -0.041881
    B  -1.726862  -0.890176  -0.929681
    B  -2.263042  -0.003478   0.489786
    B   1.806706   0.002581   1.167002
    B   0.413689  -1.216399   1.161871
    B  -0.936043   0.001793   1.654061
    B  -1.266037  -1.423690   0.673907
    B  -0.057949   1.487067  -0.749711
    B   1.243933   0.006596  -1.397141
    B  -0.486709  -0.002017  -1.759667
    H  -1.142969   0.017965   2.818477
    H   2.438946   0.005570   2.163545
    H  -1.741007  -2.401322   1.136990
    H   0.609902  -2.056413   1.977796
    H   0.057561  -2.527672  -1.319694
    H  -2.488791  -1.491517  -1.599419
    H  -3.402687   0.026331   0.791923
    H  -1.740027   2.403706   1.090600
    H   0.600157   2.068890   1.962924
    H   3.503815   0.006811  -0.656866
    H   2.231504  -2.352908  -0.070955
    H  -0.605113   0.024022  -2.932292
    H  -2.336235   1.424552  -1.480605
    H   0.036000   2.524158  -1.309000
    H   1.701808   0.013234  -2.488792
    H   2.229460   2.360800  -0.072221
    C  -1.667899   0.842202  -0.888971
    C   2.485606   0.004252  -0.345388
