32
B14C2H16
    B  -1.204506  -0.986198   1.097834
    B  -0.682680   0.535944   1.840281
    B  -1.873011   0.672825   0.635832
    B  -1.838499  -0.635603  -0.609760
    B  -0.642886  -1.832502  -0.457481
    B   0.608592  -0.532515   1.813434
    B  -0.674871   1.865743   0.503120
    B   1.100103   1.052418   1.036608
    B   1.170658  -1.010165  -1.113855
    B  -1.141754   1.044197  -1.044606
    B  -0.670797  -0.516342  -1.841695
    B   1.849097   0.611022  -0.607877
    B   0.654566   1.838219  -0.505350
    B   0.658460   0.501602  -1.852092
    H  -2.914275  -1.022603  -0.903216
    H  -2.977152   0.958063   0.941978
    H  -0.936544   0.847185   2.950978
    H  -1.725037  -1.770033   1.809625
    H   1.033127  -1.013471   2.800909
    H   1.069556  -2.648798   0.723953
    H  -0.898981  -2.952843  -0.725102
    H  -1.016486  -0.896270  -2.905482
    H   1.901519  -1.756426  -1.657350
    H  -1.777469   1.731602  -1.766317
    H  -1.005621   2.949666   0.838566
    H   1.860324   1.603900   1.751059
    H   2.645454  -0.944051   0.898812
    H   1.051410   2.886685  -0.877771
    H   2.977421   0.862954  -0.839758
    H   1.051991   0.836564  -2.913464
    C   1.685463  -0.579878   0.572829
    C   0.662829  -1.700894   0.405357
