32
B14C2H16
    B  -1.163215  -1.077509   1.008741
    B  -0.634624   0.469235   1.838658
    B  -1.846151   0.610375   0.656545
    B  -1.846146  -0.610385  -0.656550
    B  -0.670188  -1.829950  -0.520455
    B   0.615422  -1.827119   0.542471
    B  -0.670199   1.829946   0.520453
    B   1.156296   1.062643   1.007414
    B   1.834734  -0.616504   0.644421
    B   1.156304  -1.062637  -1.007411
    B  -1.163218   1.077502  -1.008744
    B  -0.634617  -0.469238  -1.838659
    B   1.834732   0.616513  -0.644417
    B   0.615413   1.827122  -0.542470
    H  -2.931939  -0.916665  -1.009037
    H  -2.931947   0.916648   1.009029
    H  -0.955940   0.776561   2.934617
    H  -1.782436  -1.792401   1.718111
    H   1.013428  -0.727523   2.728496
    H   0.967151  -2.883317   0.936175
    H  -0.997812  -2.907059  -0.881912
    H  -0.955929  -0.776565  -2.934619
    H   1.815471  -1.756684  -1.698989
    H  -1.782441   1.792392  -1.718115
    H  -0.997830   2.907053   0.881909
    H   1.815457   1.756694   1.698993
    H   2.911376  -0.943583   1.000230
    H   0.967136   2.883323  -0.936173
    H   2.911373   0.943599  -1.000222
    H   1.013432   0.727528  -2.728494
    C   0.668453  -0.445370   1.752628
    C   0.668455   0.445374  -1.752627
