32
B14C2H16
    B  -1.361916  -1.140840   0.895543
    B  -0.604438   0.371322   1.860313
    B  -1.883581   0.540845   0.730516
    B  -1.883575  -0.540855  -0.730521
    B  -0.649949  -1.757914  -0.558559
    B   0.494207  -1.702053   0.693033
    B  -0.649960   1.757912   0.558556
    B   1.146430   1.090557   0.994100
    B   1.896447  -0.555417   0.671809
    B   1.146442  -1.090553  -0.994097
    B  -1.361924   1.140835  -0.895544
    B  -0.604431  -0.371321  -1.860315
    B   1.896446   0.555427  -0.671803
    B   0.494198   1.702053  -0.693036
    H  -2.925222  -0.845516  -1.199982
    H  -2.925231   0.845499   1.199976
    H  -0.920632   0.652585   2.965143
    H  -1.926082  -1.874168   1.630354
    H   1.196930  -0.613193   2.743217
    H   0.847052  -2.759659   1.085711
    H  -0.835573  -2.862677  -0.936182
    H  -0.920623  -0.652584  -2.965146
    H   1.766184  -1.853689  -1.646847
    H  -1.926095   1.874159  -1.630356
    H  -0.835590   2.862674   0.936177
    H   1.766166   1.853696   1.646853
    H   2.961660  -0.925481   1.019393
    H   0.847037   2.759661  -1.085714
    H   2.961658   0.925498  -1.019382
    H   1.196939   0.613195  -2.743215
    C   0.798510  -0.374778   1.765535
    C   0.798516   0.374779  -1.765534
