32
B14C2H16
    B   2.579926   0.095447  -0.460414
    B   1.626046   1.420217   0.116257
    B   0.444693   0.910622   1.391913
    B  -1.156694   1.387282   0.604600
    B  -0.248081  -1.820549  -0.417398
    B   1.357292  -1.101638  -0.468918
    B  -1.710361  -0.994607  -0.856757
    B  -2.277614   0.050645   0.444808
    B   1.892687  -0.059432   1.033989
    B   0.297448  -1.108044   1.220455
    B  -1.081347   0.047267   1.719647
    B  -1.420782  -1.437676   0.831975
    B   0.036109   1.479646  -0.854580
    B  -0.191985  -0.405818  -1.606884
    H  -1.409834   0.181107   2.846182
    H   2.586196  -0.248140   1.970896
    H  -1.971778  -2.341319   1.356023
    H   0.711635  -1.850513   2.042951
    H  -0.183075  -2.951723  -0.750395
    H  -2.479032  -1.443747  -1.630065
    H  -3.434629   0.256598   0.536545
    H  -1.549038   2.483418   0.796139
    H   0.652108   1.596024   2.339651
    H   3.678294   0.032497  -0.874901
    H   1.988751  -1.947025  -1.009537
    H  -0.234104  -0.523446  -2.780065
    H  -2.074763   1.218138  -1.594478
    H  -0.039236   2.501815  -1.442986
    H   1.632139   0.841933  -2.327185
    H   2.075533   2.511108   0.131565
    C  -1.444556   0.674125  -0.904633
    C   1.324090   0.545682  -1.332791
