32
B14C2H16
    B  -1.342333  -0.901763   1.145305
    B  -0.695175   0.541313   1.846575
    B  -1.894174   0.705913   0.635054
    B  -1.816373  -0.635362  -0.579436
    B  -0.668395  -1.873293  -0.359350
    B   0.546331  -0.587947   1.791424
    B  -0.661991   1.861694   0.527397
    B   1.059450   1.049122   1.031764
    B   1.240153  -0.988174  -1.182215
    B  -1.088551   1.051900  -1.031260
    B  -0.653941  -0.538307  -1.824732
    B   1.872239   0.641218  -0.616405
    B   0.645020   1.826308  -0.532391
    B   0.655434   0.506273  -1.842156
    H  -2.891134  -1.022507  -0.892634
    H  -3.007637   1.017269   0.884339
    H  -0.877595   0.838191   2.979532
    H  -1.828088  -1.726932   1.838869
    H   0.987556  -1.123440   2.745757
    H   1.206929  -2.671489   0.625896
    H  -0.948313  -2.997581  -0.600069
    H  -1.004154  -0.938749  -2.881305
    H   1.991844  -1.741361  -1.692139
    H  -1.739762   1.724155  -1.758364
    H  -0.962052   2.959421   0.852249
    H   1.830427   1.562715   1.767616
    H   2.624746  -0.897493   0.912108
    H   1.010179   2.880112  -0.928080
    H   3.000136   0.927583  -0.816411
    H   1.013098   0.854459  -2.915534
    C   1.663472  -0.557989   0.545460
    C   0.732653  -1.745258   0.323136
