32
B14C2H16
    B  -0.631715   0.500056   1.769296
    B  -1.831371   0.659584   0.555408
    B  -1.889478  -0.667093  -0.638908
    B  -0.649734  -1.812494  -0.484278
    B   0.712664  -0.498728   1.843716
    B   0.717323  -1.839260   0.495054
    B  -0.619138   1.839022   0.420938
    B   1.207757   1.031580   1.073198
    B   1.886242  -0.644211   0.624673
    B   1.131174  -1.007804  -1.041307
    B  -1.255761   0.962552  -1.122806
    B  -0.685037  -0.533629  -1.828147
    B   1.860195   0.641299  -0.606656
    B   0.566054   0.584324  -1.775873
    H  -2.985197  -1.060878  -0.816712
    H  -2.904146   0.956157   0.939897
    H  -1.075771   0.743382   2.834780
    H  -1.702017  -1.544534   1.575605
    H   0.948795  -0.871860   2.936921
    H   0.950771  -2.920161   0.905589
    H  -1.057134  -2.904385  -0.668906
    H  -0.953886  -0.913995  -2.913154
    H   1.756220  -1.690666  -1.776462
    H  -1.848544   1.711528  -1.814759
    H  -0.946041   2.926153   0.746258
    H   1.806123   1.780067   1.761067
    H   2.972886  -0.992722   0.928711
    H   1.085601   2.700980  -0.661679
    H   2.909846   1.028176  -0.977444
    H   0.906099   1.049610  -2.805046
    C   0.722932   1.717043  -0.393909
    C  -1.105712  -0.929094   0.914933
