32
B14C2H16
    B  -1.162445  -1.042748   1.045391
    B  -0.662067   0.509801   1.842951
    B  -1.855305   0.635084   0.633111
    B  -1.855299  -0.635094  -0.633116
    B  -0.662374  -1.844487  -0.504804
    B   0.662312  -1.843152   0.509617
    B  -0.662386   1.844483   0.504802
    B   1.162443   1.045449   1.042694
    B   1.855303  -0.633459   0.634742
    B   1.162451  -1.045443  -1.042691
    B  -1.162448   1.042742  -1.045393
    B  -0.662059  -0.509804  -1.842952
    B   1.855301   0.633468  -0.634738
    B   0.662303   1.843155  -0.509616
    H  -2.955676  -0.967213  -0.964361
    H  -2.955685   0.967196   0.964353
    H  -1.017416   0.858797   2.932484
    H  -1.821544  -1.748096   1.752853
    H   1.017498  -0.851095   2.934729
    H   1.017762  -2.932658   0.858587
    H  -1.017834  -2.934907  -0.850886
    H  -1.017405  -0.858802  -2.932487
    H   1.821554  -1.752660  -1.748280
    H  -1.821549   1.748087  -1.752857
    H  -1.017853   2.934902   0.850883
    H   1.821541   1.752670   1.748285
    H   2.955682  -0.964730   0.966830
    H   1.017746   2.932664  -0.858585
    H   2.955679   0.964746  -0.966822
    H   1.017502   0.851100  -2.934727
    C   0.662133  -0.504987   1.844283
    C   0.662136   0.504990  -1.844282
