32
B14C2H16
    B  -1.078890  -0.929454   1.245582
    B  -0.546649   0.695965   1.899776
    B  -1.886389   0.571445   0.791467
    B  -1.717050  -0.602455  -0.504170
    B  -0.167100  -1.409332  -1.222781
    B   0.530717  -0.666822   1.901116
    B   0.454664  -1.748211   0.534131
    B  -0.562180   1.795118   0.543277
    B   1.050862   0.980935   1.165774
    B   1.839930  -0.573466   0.785418
    B  -1.514109   1.207796  -0.786778
    B   1.770774   0.553195  -0.530094
    B   0.224252   1.417144  -1.119192
    B   0.879244  -0.031493  -1.882597
    H  -2.656050  -1.209521  -0.879432
    H  -2.975970   0.784900   1.198730
    H  -0.764613   1.142936   2.972965
    H  -1.758314  -1.732240   1.788187
    H   0.793980  -1.119678   2.961427
    H   0.586392  -2.911988   0.677536
    H  -0.376020  -2.357627  -1.887043
    H  -1.240508   0.016616  -2.718460
    H   2.126836  -1.814215  -1.138633
    H  -2.268646   1.898583  -1.375836
    H  -0.652444   2.950643   0.774082
    H   1.762965   1.741143   1.726024
    H   2.929145  -0.856976   1.140491
    H   0.420889   2.359118  -1.805726
    H   2.829991   0.983579  -0.819215
    H   1.340304  -0.063107  -2.965343
    C  -0.776140   0.051182  -1.741250
    C   1.400126  -1.123714  -0.729438
