32
B14C2H16
    B  -1.534974  -0.774310   1.225422
    B  -0.646160   0.586147   1.814943
    B  -1.910242   0.791359   0.554814
    B  -1.726502  -0.527281  -0.596038
    B  -0.821871  -1.871195   0.083733
    B   0.220411  -1.054092   1.434627
    B  -0.560602   1.893317   0.707668
    B   1.008423   1.054561   1.009026
    B   1.499632  -0.782749  -1.296691
    B  -1.077702   1.252854  -0.940029
    B  -0.207624  -1.195539  -1.434406
    B   1.852733   0.776340  -0.585697
    B   0.528365   1.880673  -0.650120
    B   0.470131   0.543316  -1.779964
    H  -2.700885  -0.828437  -1.195711
    H  -2.997561   1.220240   0.737232
    H  -0.691484   0.813900   2.973981
    H  -2.261936  -1.320508   1.982710
    H   0.654017  -1.672956   2.338669
    H   1.318317  -2.676853  -0.002728
    H  -1.184797  -2.994015   0.061033
    H  -0.340905  -1.937023  -2.343825
    H   2.354548  -1.318232  -1.903894
    H  -1.741811   1.844589  -1.719447
    H  -0.678536   2.975735   1.171460
    H   1.772982   1.490206   1.796790
    H   2.559789  -0.829551   0.925794
    H   0.847423   2.941402  -1.064269
    H   2.959788   1.162587  -0.718205
    H   0.578802   0.791124  -2.931365
    C   1.650773  -0.507168   0.439820
    C   0.807459  -1.728442  -0.095337
