32
B14C2H16
    B   1.694474   1.330123  -0.023996
    B   0.404217   1.266877   1.143400
    B  -1.263934   1.416467   0.690348
    B  -0.063748  -1.521479  -0.740945
    B   1.691257  -1.342301  -0.020004
    B  -1.721560  -0.906622  -0.917270
    B  -2.260392  -0.013762   0.501415
    B   1.761257   0.003359   1.180006
    B   0.397863  -1.263114   1.144233
    B  -0.916711  -0.005402   1.668046
    B  -1.278787  -1.439851   0.695331
    B  -0.060764   1.520028  -0.729977
    B   1.271491   0.022581  -1.442259
    B  -0.461667  -0.012244  -1.734907
    H  -1.093115   0.018694   2.836781
    H   2.464287   0.010417   2.127226
    H  -1.769982  -2.408320   1.160423
    H   0.597785  -2.132866   1.928319
    H   0.067802  -2.549259  -1.314810
    H  -2.514935  -1.416088  -1.624041
    H  -3.414006   0.074947   0.725810
    H  -1.804351   2.402921   1.044635
    H   0.580264   2.147590   1.920262
    H   3.462277  -0.001247  -0.617443
    H   2.304536  -2.348942  -0.068295
    H  -0.617062   0.056488  -2.902025
    H  -2.295014   1.375666  -1.441094
    H  -0.026666   2.551013  -1.305571
    H   1.735018   0.027877  -2.530005
    H   2.293446   2.343356  -0.106137
    C  -1.607224   0.800291  -0.837962
    C   2.419981  -0.007309  -0.337887
