32
B14C2H16
    B   2.568748  -0.027269  -0.287853
    B   1.645464   1.321715  -0.058527
    B   0.387916   1.518820   1.044270
    B  -0.079423  -1.498127  -0.800771
    B   1.670164  -1.362232  -0.016124
    B  -1.761145  -0.876581  -0.934020
    B  -2.197238  -0.033171   0.536293
    B   1.600427   0.013797   1.210587
    B  -0.708544  -0.042363   1.602178
    B  -1.264062  -1.487059   0.645415
    B  -1.734601   0.872673  -0.907457
    B  -0.060345   1.535440  -0.810414
    B   1.277364  -0.021763  -1.396511
    B  -0.471745   0.016460  -1.763998
    H  -0.830212  -0.002752   2.772300
    H   2.057901  -0.034560   2.298436
    H  -1.709230  -2.439054   1.181474
    H   0.525853  -2.065276   1.665588
    H   0.099696  -2.566329  -1.272469
    H  -2.553430  -1.488305  -1.559507
    H  -3.275667   0.084147   0.996334
    H  -1.697372   2.102959   1.114323
    H   0.516202   2.384968   1.837233
    H   3.726349  -0.028506  -0.505688
    H   2.193656  -2.420341   0.054445
    H  -0.601327   0.023917  -2.938265
    H  -2.529750   1.577938  -1.417105
    H  -0.066679   2.604936  -1.311918
    H   1.763767  -0.013837  -2.475078
    H   2.291452   2.316384  -0.027949
    C   0.351704  -1.260935   0.959425
    C  -1.159853   1.294198   0.636964
