32
B14C2H16
    B  -0.501202   0.721344   1.579982
    B  -1.825061   0.626636   0.492681
    B  -1.913423  -0.725562  -0.661699
    B  -0.547517  -1.798132  -0.624395
    B   0.666213  -0.529595   1.813268
    B   0.576959  -1.838922   0.683074
    B  -0.662205   1.831321  -0.014079
    B   1.400340   0.902226   1.176969
    B   1.889161  -0.748559   0.560168
    B   1.036919  -1.129140  -0.986665
    B  -1.525534   0.811388  -1.227088
    B  -0.549269  -0.526822  -1.788683
    B   1.858440   0.547847  -0.577245
    B   0.212159   1.135808  -1.465492
    H  -2.959500  -1.262630  -0.747290
    H  -2.835645   0.891580   1.039968
    H  -0.842923   1.161495   2.621818
    H  -1.550356  -1.538830   1.634987
    H   0.779834  -0.817584   2.951359
    H   0.704514  -2.924308   1.126418
    H  -0.870559  -2.915087  -0.824361
    H  -0.611112  -0.837341  -2.926886
    H   1.704085  -1.723148  -1.761144
    H  -2.304131   1.354088  -1.933972
    H  -1.079604   2.930111   0.132084
    H   2.033938   1.518343   1.962562
    H   2.945180  -1.232695   0.780864
    H   1.415231   2.739444  -0.291508
    H   2.887950   0.820793  -1.086700
    H   0.437158   1.765854  -2.440135
    C   0.947868   1.775297  -0.152367
    C  -0.917908  -0.985222   0.953505
