32
B14C2H16
    B  -0.541149   0.623714   1.613374
    B  -1.812897   0.632137   0.481335
    B  -1.933674  -0.716762  -0.654187
    B  -0.571119  -1.778064  -0.581411
    B   0.692300  -0.523154   1.842722
    B   0.584871  -1.834267   0.683393
    B  -0.606814   1.823186   0.029199
    B   1.376037   0.924638   1.156845
    B   1.886249  -0.725300   0.577889
    B   1.025077  -1.048189  -0.986845
    B  -1.518627   0.817806  -1.234978
    B  -0.599532  -0.549911  -1.799176
    B   1.876191   0.579124  -0.558771
    B   0.268994   1.049497  -1.502941
    H  -2.978881  -1.243333  -0.793273
    H  -2.825858   0.952697   0.996295
    H  -0.915289   1.072978   2.641154
    H  -1.580907  -1.583299   1.614335
    H   0.882296  -0.809093   2.970849
    H   0.743700  -2.923134   1.106655
    H  -0.885289  -2.900201  -0.778531
    H  -0.655796  -0.886856  -2.929762
    H   1.677181  -1.636076  -1.777817
    H  -2.297924   1.414306  -1.892175
    H  -1.063414   2.906356   0.170630
    H   1.999231   1.532989   1.957039
    H   2.943264  -1.211126   0.784217
    H   1.411616   2.772173  -0.349447
    H   2.921451   0.808521  -1.056178
    H   0.487257   1.666495  -2.487906
    C   0.962804   1.800322  -0.186854
    C  -0.951346  -1.008176   0.944319
