32
B14C2H16
    B   2.613355  -0.001552  -0.370724
    B   1.679739   1.319711  -0.041544
    B   0.407323   1.227512   1.154054
    B  -0.070322  -1.499983  -0.753529
    B   1.673072  -1.314204  -0.035646
    B  -1.736731  -0.890295  -0.933164
    B  -2.267856  -0.005022   0.496544
    B   1.800131   0.004589   1.161447
    B  -0.923714  -0.005356   1.652380
    B  -1.262913  -1.421924   0.669454
    B  -1.735372   0.886937  -0.929212
    B  -0.066324   1.500071  -0.753096
    B   1.253713  -0.001621  -1.390357
    B  -0.486166   0.002187  -1.769674
    H  -1.114601   0.002657   2.821900
    H   2.390556  -0.003675   2.192446
    H  -1.720715  -2.401818   1.157214
    H   0.557760  -1.975316   1.913521
    H   0.050161  -2.555233  -1.282794
    H  -2.494916  -1.533781  -1.579749
    H  -3.398482   0.004132   0.851438
    H  -1.691503   2.310826   1.117792
    H   0.584884   2.065184   1.982330
    H   3.751919  -0.011137  -0.692485
    H   2.185713  -2.386380  -0.025496
    H  -0.598448   0.007610  -2.950529
    H  -2.493500   1.538778  -1.566229
    H   0.039507   2.553818  -1.288155
    H   1.714777  -0.007373  -2.486092
    H   2.198768   2.389447  -0.042758
    C   0.389215  -1.191284   1.129470
    C  -1.252993   1.392385   0.662855
