32
B14C2H16
    B  -1.297114  -1.111055   0.927631
    B  -0.644884   0.403492   1.877447
    B  -1.873959   0.567444   0.714170
    B  -1.873953  -0.567455  -0.714175
    B  -0.671626  -1.797443  -0.553440
    B   0.532013  -1.727723   0.617689
    B  -0.671637   1.797439   0.553438
    B   1.175861   1.088223   0.987593
    B   1.887834  -0.581051   0.664157
    B   1.175871  -1.088217  -0.987590
    B  -1.297119   1.111048  -0.927634
    B  -0.644878  -0.403494  -1.877449
    B   1.887832   0.581062  -0.664152
    B   0.532004   1.727725  -0.617689
    H  -2.941133  -0.848294  -1.139863
    H  -2.941141   0.848278   1.139855
    H  -0.932880   0.686349   2.988222
    H  -1.833807  -1.837682   1.689864
    H   1.121997  -0.631499   2.707014
    H   0.899470  -2.774660   1.026585
    H  -0.875949  -2.899861  -0.926770
    H  -0.932869  -0.686353  -2.988224
    H   1.787235  -1.811787  -1.691676
    H  -1.833815   1.837672  -1.689868
    H  -0.875967   2.899856   0.926767
    H   1.787220   1.811796   1.691681
    H   2.934049  -0.942393   1.071032
    H   0.899457   2.774664  -1.026584
    H   2.934046   0.942409  -1.071024
    H   1.122002   0.631504  -2.707011
    C   0.732918  -0.375245   1.728920
    C   0.732921   0.375248  -1.728919
