32
B14C2H16
    B  -1.074039  -0.943412   1.212287
    B  -0.535419   0.692771   1.902506
    B  -1.866682   0.579797   0.781377
    B  -1.742653  -0.574445  -0.512014
    B  -0.185549  -1.411954  -1.186494
    B   0.529679  -0.688038   1.918149
    B   0.491521  -1.756883   0.547710
    B  -0.480331   1.771310   0.517595
    B   1.077361   0.946468   1.257017
    B   1.855729  -0.565251   0.800089
    B  -1.511161   1.217639  -0.796242
    B   1.700148   0.630423  -0.488009
    B   0.192789   1.428892  -1.204056
    B   0.865240  -0.047493  -1.877591
    H  -2.686922  -1.174470  -0.886395
    H  -2.947963   0.796456   1.208960
    H  -0.793083   1.154038   2.960606
    H  -1.753424  -1.755294   1.740593
    H   0.767822  -1.170719   2.971342
    H   0.615026  -2.922731   0.679659
    H  -0.378411  -2.367504  -1.845640
    H  -1.242978  -0.009314  -2.731607
    H   2.122463  -1.791850  -1.136314
    H  -2.276241   1.918234  -1.358165
    H  -0.548924   2.931498   0.737839
    H   1.777889   1.699113   1.841858
    H   2.954646  -0.850086   1.121173
    H   0.365736   2.333424  -1.943131
    H   2.744965   1.072617  -0.815572
    H   1.354019  -0.080856  -2.947819
    C  -0.786315   0.046444  -1.752158
    C   1.395063  -1.108827  -0.717553
