32
B14C2H16
    B  -1.535568  -0.774055   1.223202
    B  -0.643011   0.584039   1.814362
    B  -1.910222   0.792396   0.555321
    B  -1.722933  -0.524928  -0.599241
    B  -0.823451  -1.871412   0.082155
    B   0.217467  -1.058348   1.434689
    B  -0.560127   1.893191   0.707848
    B   1.010955   1.057898   1.008057
    B   1.500145  -0.783355  -1.295632
    B  -1.079436   1.256315  -0.938662
    B  -0.205361  -1.197816  -1.433526
    B   1.852623   0.777666  -0.587737
    B   0.528918   1.880734  -0.649636
    B   0.467516   0.540488  -1.778826
    H  -2.697844  -0.824695  -1.198891
    H  -2.997913   1.219297   0.739965
    H  -0.687030   0.812782   2.973240
    H  -2.263664  -1.320755   1.979171
    H   0.647255  -1.678505   2.339670
    H   1.319377  -2.675417  -0.000263
    H  -1.184119  -2.994980   0.062085
    H  -0.337792  -1.939747  -2.342762
    H   2.354789  -1.317992  -1.903782
    H  -1.744393   1.849154  -1.716503
    H  -0.680497   2.975087   1.172274
    H   1.773075   1.495314   1.797065
    H   2.561108  -0.828158   0.926255
    H   0.845919   2.941268  -1.066188
    H   2.961019   1.159783  -0.720992
    H   0.573454   0.787852  -2.930535
    C   1.652411  -0.505274   0.440115
    C   0.807331  -1.727827  -0.092301
