32
B14C2H16
    B   2.588066   0.003306  -0.412103
    B   1.615576   1.328158  -0.090059
    B   0.382271   1.247698   1.143212
    B  -1.308120   1.421569   0.748484
    B  -0.184523  -1.698010  -0.592475
    B   1.599317  -1.309556  -0.123761
    B  -1.669330  -0.919580  -0.920587
    B  -2.272090   0.001484   0.478197
    B   1.795859   0.009883   1.109149
    B   0.358183  -1.249511   1.103767
    B  -0.943772  -0.012897   1.682123
    B  -1.348028  -1.448421   0.746150
    B  -0.131284   1.643572  -0.613938
    B  -0.300159  -0.084272  -1.692628
    H  -1.121605   0.001976   2.850067
    H   2.381192  -0.005354   2.133461
    H  -1.865114  -2.380248   1.256779
    H   0.671164  -2.066406   1.908058
    H  -0.029274  -2.712119  -1.178769
    H  -2.467614  -1.355523  -1.670484
    H  -3.437493   0.104819   0.620022
    H  -1.873070   2.401135   1.085220
    H   0.637528   2.068865   1.960734
    H   3.709501  -0.000368  -0.767118
    H   2.224830  -2.297609  -0.297682
    H  -0.494085  -0.018310  -2.856605
    H  -2.219723   1.323790  -1.490574
    H  -0.069739   2.621013  -1.270514
    H   1.748719   0.147163  -2.364793
    H   2.196111   2.351453  -0.209484
    C  -1.533706   0.803785  -0.840969
    C   1.336452   0.078407  -1.361274
