32
B14C2H16
    B  -1.558670  -0.801171   1.255630
    B  -0.613307   0.595837   1.813075
    B  -1.908621   0.766933   0.591669
    B  -1.831460  -0.575061  -0.508226
    B  -0.817193  -1.860958   0.080487
    B   0.190369  -1.121545   1.437172
    B  -0.537047   1.846833   0.664941
    B   1.028475   1.082442   1.021756
    B   1.481607  -0.789747  -1.292111
    B  -1.020017   1.034065  -1.013107
    B  -0.330835  -0.945623  -1.449284
    B   1.915282   0.776280  -0.580963
    B   0.555695   1.880011  -0.667511
    B   0.612579   0.587673  -1.794906
    H  -2.799641  -0.939389  -1.078568
    H  -2.959529   1.279272   0.764664
    H  -0.658465   0.827257   2.969828
    H  -2.302186  -1.300329   2.031625
    H   0.588481  -1.760001   2.344232
    H   1.324362  -2.647383  -0.006273
    H  -1.125791  -2.998826  -0.005045
    H  -0.489903  -1.654931  -2.381684
    H   2.316612  -1.359589  -1.894116
    H  -1.702750   1.598592  -1.796649
    H  -0.713262   2.942221   1.077772
    H   1.781904   1.549031   1.799903
    H   2.565215  -0.831070   0.936522
    H   0.771908   2.965489  -1.077788
    H   3.008455   1.198419  -0.695065
    H   0.756692   0.857212  -2.936951
    C   1.665572  -0.497925   0.446387
    C   0.805468  -1.704021  -0.057418
