32
B14C2H16
    B  -1.075561  -0.932785   1.241380
    B  -0.554070   0.695385   1.897785
    B  -1.895103   0.568652   0.789000
    B  -1.719203  -0.607273  -0.507329
    B  -0.168316  -1.412052  -1.216304
    B   0.536676  -0.657766   1.898049
    B   0.457609  -1.750186   0.536350
    B  -0.585017   1.800898   0.550066
    B   1.051126   0.994609   1.139518
    B   1.844902  -0.575661   0.782958
    B  -1.513714   1.209380  -0.792453
    B   1.782183   0.542219  -0.538665
    B   0.245071   1.430593  -1.083666
    B   0.873725  -0.026494  -1.881914
    H  -2.659459  -1.214885  -0.877045
    H  -2.986267   0.775991   1.193968
    H  -0.767944   1.135685   2.974245
    H  -1.756274  -1.735279   1.782718
    H   0.803766  -1.102829   2.960355
    H   0.578619  -2.914383   0.681986
    H  -0.386356  -2.364359  -1.871634
    H  -1.239010   0.015661  -2.717914
    H   2.123384  -1.817711  -1.143533
    H  -2.262251   1.899095  -1.389645
    H  -0.687252   2.953405   0.788841
    H   1.770181   1.754068   1.691860
    H   2.930830  -0.865360   1.142028
    H   0.453284   2.378230  -1.758813
    H   2.842926   0.960066  -0.839492
    H   1.339446  -0.054762  -2.962695
    C  -0.776862   0.048068  -1.740617
    C   1.398934  -1.130221  -0.729386
