32
B14C2H16
    B   0.388711   1.347737   1.138089
    B  -1.259595   1.435859   0.654283
    B  -0.090224  -1.552607  -0.732821
    B   1.673783  -1.357079  -0.046623
    B  -1.749606  -0.903677  -0.918057
    B  -2.255966   0.015047   0.503802
    B   1.691524  -0.052213   1.221310
    B   0.386987  -1.328771   1.113650
    B  -0.843284   0.009184   1.651042
    B  -1.285842  -1.432479   0.703479
    B  -1.735498   0.868469  -0.942497
    B  -0.037438   1.510249  -0.792962
    B   1.229866   0.034134  -1.455915
    B  -0.479991  -0.042187  -1.757264
    H  -0.958572   0.038316   2.828972
    H   2.421305   0.064086   2.137454
    H  -1.777731  -2.382232   1.206328
    H   0.614878  -2.219458   1.866908
    H   0.090006  -2.577057  -1.300882
    H  -2.495002  -1.538174  -1.580118
    H  -3.377296   0.041020   0.874967
    H  -1.719724   2.413559   1.135577
    H   0.658777   2.239187   1.868905
    H   3.418971   0.118624  -0.549180
    H   2.355229  -2.315438  -0.133192
    H  -0.520751  -0.048780  -2.939311
    H  -2.443911   1.540037  -1.608826
    H   0.144927   2.544491  -1.337530
    H   1.801917   0.210556  -2.474906
    H   2.176656   2.110034   0.008998
    C   2.377075  -0.001123  -0.298589
    C   1.575859   1.210578   0.026519
