32
B14C2H16
    B  -1.349921  -1.138523   0.898550
    B  -0.614553   0.368274   1.869210
    B  -1.878470   0.545439   0.724996
    B  -1.878465  -0.545449  -0.725000
    B  -0.653918  -1.765052  -0.558515
    B   0.506247  -1.701250   0.679859
    B  -0.653929   1.765049   0.558512
    B   1.153146   1.093410   0.987572
    B   1.892054  -0.558290   0.672230
    B   1.153157  -1.093405  -0.987569
    B  -1.349927   1.138517  -0.898552
    B  -0.614546  -0.368274  -1.869212
    B   1.892053   0.558300  -0.672224
    B   0.506238   1.701251  -0.679860
    H  -2.926337  -0.845298  -1.183978
    H  -2.926345   0.845281   1.183972
    H  -0.932622   0.651617   2.972631
    H  -1.919020  -1.867142   1.634352
    H   1.192053  -0.611808   2.737848
    H   0.856224  -2.761220   1.068433
    H  -0.845196  -2.867672  -0.938251
    H  -0.932613  -0.651619  -2.972633
    H   1.777816  -1.853181  -1.639525
    H  -1.919030   1.867132  -1.634355
    H  -0.845213   2.867669   0.938247
    H   1.777799   1.853190   1.639530
    H   2.953994  -0.927996   1.029474
    H   0.856210   2.761223  -1.068434
    H   2.953992   0.928013  -1.029464
    H   1.192060   0.611812  -2.737846
    C   0.788529  -0.367190   1.763528
    C   0.788534   0.367192  -1.763527
