32
B14C2H16
    B  -1.079727  -1.106990   1.007786
    B  -0.800465   0.428258   1.895933
    B  -1.847632  -0.604697  -0.603249
    B  -0.654376  -1.838110  -0.524773
    B   0.629559  -0.425633   1.787932
    B   0.657023  -1.824986   0.538917
    B  -0.801519   1.897466   0.422732
    B   1.871285  -0.649682   0.605640
    B   1.112390  -1.072155  -1.069465
    B  -1.079531   1.004826  -1.110247
    B  -0.654194  -0.529858  -1.836634
    B   1.871031   0.603986  -0.650942
    B   0.628933   1.786849  -0.429818
    B   0.656977   0.534349  -1.826215
    H  -2.973726  -0.856208  -0.853919
    H  -2.740483   0.888028   0.886601
    H  -1.122642   0.907582   2.923480
    H  -1.815938  -1.676064   1.741870
    H   1.048253  -0.651455   2.872057
    H   1.015048  -2.887463   0.915476
    H  -1.017397  -2.909900  -0.865026
    H  -1.017207  -0.872837  -2.907561
    H   1.766761  -1.769578  -1.764980
    H  -1.815660   1.737473  -1.681245
    H  -1.124275   2.926304   0.898849
    H   1.821061   1.558633   1.554924
    H   2.948463  -0.914524   1.006464
    H   1.048118   2.870232  -0.658395
    H   2.948134   1.004515  -0.916558
    H   1.015240   0.908399  -2.889510
    C   1.233205   0.914899   0.913107
    C  -1.726711   0.618342   0.616764
