32
B14C2H16
    B  -1.454769  -0.845400   1.198666
    B  -0.687543   0.547694   1.829406
    B  -1.923270   0.730208   0.623928
    B  -1.803550  -0.653791  -0.535508
    B  -0.674024  -1.898288  -0.204603
    B   0.460341  -0.720841   1.670814
    B  -0.634322   1.841081   0.567407
    B   1.036319   1.020082   1.021930
    B   1.317108  -0.935997  -1.205769
    B  -1.067391   1.053470  -1.032691
    B  -0.611144  -0.597332  -1.766924
    B   1.886940   0.679612  -0.610591
    B   0.626244   1.832504  -0.565333
    B   0.648382   0.533139  -1.831652
    H  -2.862480  -1.029619  -0.911896
    H  -3.014190   1.134863   0.830176
    H  -0.797751   0.858850   2.966099
    H  -2.008675  -1.631534   1.889056
    H   0.859037  -1.261784   2.640480
    H   1.335934  -2.697512   0.493577
    H  -1.048240  -3.003366  -0.403266
    H  -0.915799  -1.078875  -2.802826
    H   2.075143  -1.629122  -1.785418
    H  -1.724558   1.694903  -1.779541
    H  -0.880459   2.950742   0.895783
    H   1.772118   1.535659   1.787956
    H   2.658794  -0.854867   0.903893
    H   0.957807   2.910501  -0.918917
    H   3.003176   1.016260  -0.785823
    H   0.962978   0.855276  -2.926310
    C   1.694327  -0.572254   0.506609
    C   0.813517  -1.784262   0.241286
