32
B14C2H16
    B   0.388194   1.344686   1.139192
    B  -1.259598   1.435464   0.653191
    B  -0.093325  -1.553571  -0.728749
    B   1.673786  -1.360470  -0.046568
    B  -1.749783  -0.904893  -0.916575
    B  -2.256539   0.015137   0.502610
    B   1.695073  -0.050213   1.218881
    B   0.385994  -1.324992   1.112394
    B  -0.847224   0.009476   1.651071
    B  -1.287679  -1.432952   0.705036
    B  -1.735322   0.867156  -0.944198
    B  -0.038695   1.510862  -0.791754
    B   1.230949   0.046801  -1.456443
    B  -0.479247  -0.044900  -1.756198
    H  -0.963007   0.038242   2.828941
    H   2.424695   0.063519   2.135367
    H  -1.778640  -2.382203   1.209661
    H   0.616639  -2.213447   1.867834
    H   0.091608  -2.576598  -1.298067
    H  -2.494024  -1.539583  -1.579834
    H  -3.378231   0.042021   0.872772
    H  -1.717400   2.414543   1.133979
    H   0.661815   2.233045   1.872279
    H   3.420371   0.115075  -0.550086
    H   2.352882  -2.320586  -0.131904
    H  -0.518151  -0.052656  -2.938341
    H  -2.443376   1.538301  -1.611328
    H   0.141748   2.545570  -1.336010
    H   1.802721   0.228627  -2.474623
    H   2.176327   2.106664   0.006525
    C   2.378224  -0.005879  -0.301174
    C   1.575253   1.207646   0.023727
