32
B14C2H16
    B  -1.547962  -0.795890   1.243228
    B  -0.660516   0.582088   1.822110
    B  -1.943301   0.740373   0.603235
    B  -1.839357  -0.602832  -0.503824
    B  -0.727132  -1.832739   0.022772
    B   0.246730  -1.017408   1.471533
    B  -0.576268   1.824690   0.631317
    B   1.005533   1.033855   1.032421
    B   1.424756  -0.852960  -1.263034
    B  -1.030760   1.062211  -1.036056
    B  -0.471304  -0.785631  -1.573941
    B   1.891288   0.744781  -0.578517
    B   0.576824   1.860609  -0.645546
    B   0.622298   0.570555  -1.819245
    H  -2.832616  -0.990241  -1.016195
    H  -2.998316   1.239405   0.789794
    H  -0.701100   0.847298   2.972780
    H  -2.251562  -1.399378   1.979167
    H   0.663271  -1.610618   2.402147
    H   1.396424  -2.690487   0.198008
    H  -1.070162  -2.963579  -0.041534
    H  -0.651901  -1.461328  -2.529456
    H   2.228287  -1.424423  -1.910053
    H  -1.702590   1.657306  -1.805949
    H  -0.749775   2.933982   1.006217
    H   1.768600   1.486482   1.811740
    H   2.629153  -0.805733   0.921469
    H   0.870319   2.944444  -1.011379
    H   2.995545   1.142781  -0.699448
    H   0.849462   0.836465  -2.948629
    C   1.702650  -0.518520   0.444221
    C   0.883483  -1.755556   0.030645
