32
B14C2H16
    B   1.696126   1.329021  -0.020470
    B   0.407750   1.238807   1.155646
    B  -1.262526   1.413927   0.689795
    B  -0.059980  -1.512566  -0.746491
    B   1.686640  -1.335398  -0.020343
    B  -1.719171  -0.909607  -0.919538
    B  -2.266214  -0.015198   0.500237
    B   1.778375   0.001216   1.177221
    B   0.401824  -1.234949   1.161746
    B  -0.936662  -0.006540   1.668928
    B  -1.274888  -1.435766   0.690222
    B  -0.057006   1.508780  -0.734949
    B   1.259014   0.014484  -1.433765
    B  -0.471939  -0.008996  -1.749064
    H  -1.117524   0.015017   2.837098
    H   2.493543   0.006459   2.115466
    H  -1.752710  -2.413171   1.150599
    H   0.600610  -2.095832   1.955893
    H   0.073029  -2.546193  -1.309192
    H  -2.513874  -1.418822  -1.625076
    H  -3.421443   0.076860   0.713972
    H  -1.794217   2.407274   1.037537
    H   0.580436   2.113958   1.940186
    H   3.463633  -0.004359  -0.629021
    H   2.298521  -2.342898  -0.067993
    H  -0.624035   0.065193  -2.915668
    H  -2.295508   1.382115  -1.437503
    H  -0.018525   2.543762  -1.303006
    H   1.721585   0.016338  -2.522493
    H   2.284458   2.348009  -0.104761
    C  -1.606664   0.803128  -0.840232
    C   2.423379  -0.004162  -0.343371
