32
B14C2H16
    B  -1.122358  -1.062310   1.030532
    B  -0.696477   0.487459   1.824003
    B  -1.839904  -0.608421  -0.606408
    B  -0.666901  -1.846339  -0.498898
    B   0.632182  -0.505364   1.799845
    B   0.668319  -1.850527   0.499817
    B  -0.696805   1.825519   0.482567
    B   1.842877  -0.642070   0.612504
    B   1.163206  -1.056177  -1.053070
    B  -1.122351   1.027839  -1.064766
    B  -0.667097  -0.503502  -1.845148
    B   1.842662   0.611068  -0.643069
    B   0.631877   1.798718  -0.510151
    B   0.668328   0.495205  -1.851731
    H  -2.959593  -0.869773  -0.867091
    H  -2.700174   0.922146   0.919852
    H  -1.030061   0.908329   2.871355
    H  -1.826583  -1.675750   1.750778
    H   1.014987  -0.724321   2.893270
    H   1.044581  -2.904489   0.878012
    H  -1.047902  -2.908135  -0.845902
    H  -1.048044  -0.853273  -2.906031
    H   1.834849  -1.743823  -1.738855
    H  -1.826385   1.746478  -1.680208
    H  -1.030637   2.873968   0.900481
    H   1.651541   1.600787   1.596468
    H   2.932475  -0.865468   0.999366
    H   1.014830   2.891475  -0.732215
    H   2.932300   0.997377  -0.867263
    H   1.045028   0.870578  -2.906538
    C   1.079156   0.953702   0.950963
    C  -1.717925   0.609096   0.607527
