32
B14C2H16
    B   2.602568   0.000135  -0.395116
    B   1.668178   1.301016  -0.054706
    B   0.408178   1.173885   1.150274
    B  -1.274721   1.398853   0.671114
    B  -0.069095  -1.492848  -0.743090
    B   1.668646  -1.300727  -0.053271
    B  -1.726238  -0.887763  -0.933013
    B   0.408510  -1.172680   1.151400
    B  -0.954196   0.000672   1.647155
    B  -1.274310  -1.398538   0.672436
    B  -1.726513   0.886391  -0.933854
    B  -0.069649   1.492284  -0.744457
    B   1.252113  -0.000640  -1.400979
    B  -0.492364  -0.000857  -1.775833
    H  -1.213341   0.001151   2.796522
    H   2.291359   0.001350   1.974788
    H  -1.769357  -2.342740   1.170536
    H   0.627802  -1.976061   1.990147
    H   0.054754  -2.550246  -1.255100
    H  -2.527914  -1.513843  -1.523169
    H  -3.173889  -0.000113   0.768946
    H  -1.770050   2.343374   1.168332
    H   0.627375   1.978161   1.988186
    H   3.753918   0.000252  -0.620708
    H   2.213959  -2.341576   0.034925
    H  -0.612035  -0.001430  -2.948640
    H  -2.528375   1.511636  -1.524642
    H   0.053927   2.549250  -1.257412
    H   1.719832  -0.001177  -2.487205
    H   2.213289   2.342066   0.032387
    C  -2.148232  -0.000094   0.454947
    C   1.741908   0.000751   1.050711
