32
B14C2H16
    B  -1.461535  -0.827162   1.189629
    B  -0.696310   0.546796   1.838623
    B  -1.919899   0.734423   0.627897
    B  -1.797108  -0.648502  -0.539288
    B  -0.675315  -1.902826  -0.227154
    B   0.472272  -0.678360   1.715726
    B  -0.642010   1.849761   0.558576
    B   1.034706   1.029984   1.024575
    B   1.309207  -0.947612  -1.226723
    B  -1.058877   1.052852  -1.027468
    B  -0.622620  -0.581119  -1.786229
    B   1.894291   0.675007  -0.616494
    B   0.633893   1.824637  -0.559918
    B   0.653141   0.524750  -1.829937
    H  -2.862526  -1.031447  -0.893798
    H  -3.024738   1.106624   0.827738
    H  -0.807888   0.844557   2.981068
    H  -1.967683  -1.650815   1.874093
    H   0.891613  -1.244365   2.662367
    H   1.333120  -2.695535   0.507052
    H  -1.018925  -3.016835  -0.438939
    H  -0.952412  -1.034143  -2.827865
    H   2.068538  -1.673225  -1.765563
    H  -1.725895   1.696310  -1.766604
    H  -0.898693   2.959161   0.881054
    H   1.788122   1.530561   1.786673
    H   2.631378  -0.859999   0.921286
    H   0.964103   2.894955  -0.941114
    H   3.014080   1.003437  -0.790464
    H   0.969451   0.868491  -2.919004
    C   1.670284  -0.562489   0.517439
    C   0.804235  -1.787871   0.242765
