32
B14C2H16
    B   1.698341   1.335944  -0.016812
    B   0.403656   1.296924   1.135873
    B  -1.259537   1.418518   0.687801
    B  -0.065823  -1.529458  -0.741967
    B   1.688481  -1.340441  -0.020895
    B  -1.723615  -0.905575  -0.915554
    B  -2.253375  -0.013602   0.505384
    B   1.736581   0.002561   1.188478
    B   0.395795  -1.294575   1.135397
    B  -0.887346  -0.004952   1.663287
    B  -1.276268  -1.441735   0.695678
    B  -0.058263   1.520226  -0.734533
    B   1.267993   0.025540  -1.435909
    B  -0.462503  -0.014068  -1.736853
    H  -1.062189   0.018380   2.832426
    H   2.434060   0.005737   2.140028
    H  -1.780430  -2.401181   1.165930
    H   0.599517  -2.173670   1.907127
    H   0.064531  -2.554045  -1.321607
    H  -2.520803  -1.413191  -1.619368
    H  -3.405090   0.077927   0.737623
    H  -1.813558   2.396396   1.044971
    H   0.576754   2.187935   1.900838
    H   3.459141  -0.002785  -0.603035
    H   2.313481  -2.339934  -0.075307
    H  -0.616962   0.054205  -2.903970
    H  -2.299414   1.372543  -1.437098
    H  -0.025660   2.545875  -1.319978
    H   1.737215   0.031047  -2.521449
    H   2.304137   2.345308  -0.099048
    C  -1.608415   0.797449  -0.837726
    C   2.415607  -0.003409  -0.328124
