32
B14C2H16
    B   2.579320   0.094597  -0.458854
    B   1.626853   1.420640   0.118335
    B   0.444370   0.915102   1.391551
    B  -1.158994   1.388227   0.604046
    B  -0.248104  -1.820076  -0.422184
    B   1.358164  -1.104670  -0.470817
    B  -1.711734  -0.993617  -0.856637
    B  -2.278380   0.050275   0.446640
    B   1.890173  -0.060507   1.035218
    B   0.297199  -1.111552   1.216311
    B  -1.078990   0.048467   1.718976
    B  -1.420054  -1.437968   0.832860
    B   0.035683   1.478376  -0.853135
    B  -0.191306  -0.404397  -1.605499
    H  -1.407136   0.183116   2.845691
    H   2.583306  -0.250213   1.972270
    H  -1.969054  -2.341323   1.359269
    H   0.710627  -1.852067   2.041117
    H  -0.185705  -2.950899  -0.756939
    H  -2.479621  -1.447443  -1.627836
    H  -3.435505   0.255938   0.537935
    H  -1.550510   2.484975   0.793976
    H   0.652035   1.603927   2.336805
    H   3.677980   0.031332  -0.872675
    H   1.992874  -1.947517  -1.011460
    H  -0.234677  -0.524070  -2.778435
    H  -2.073577   1.216297  -1.595071
    H  -0.039461   2.500082  -1.442471
    H   1.632183   0.843790  -2.325878
    H   2.078522   2.510638   0.132763
    C  -1.445163   0.673360  -0.902990
    C   1.324719   0.547072  -1.331272
