32
B14C2H16
    B   2.568617  -0.027008  -0.287957
    B   1.645242   1.321540  -0.057506
    B   0.387627   1.519527   1.044703
    B  -0.079229  -1.498418  -0.800981
    B   1.670341  -1.362249  -0.016085
    B  -1.760970  -0.876712  -0.934122
    B  -2.196372  -0.032857   0.536203
    B   1.600455   0.013174   1.210297
    B  -0.708774  -0.042358   1.601996
    B  -1.263469  -1.486587   0.645065
    B  -1.734496   0.872674  -0.907483
    B  -0.060131   1.534529  -0.810957
    B   1.276141  -0.021362  -1.395926
    B  -0.472278   0.016543  -1.765737
    H  -0.830497  -0.002599   2.772115
    H   2.057090  -0.034749   2.298577
    H  -1.708003  -2.438798   1.181318
    H   0.525604  -2.064103   1.667117
    H   0.098570  -2.566901  -1.272489
    H  -2.553969  -1.488677  -1.558505
    H  -3.274678   0.083676   0.996848
    H  -1.697601   2.102519   1.114092
    H   0.516347   2.384749   1.838578
    H   3.726223  -0.028079  -0.505861
    H   2.193163  -2.420776   0.053104
    H  -0.601863   0.024814  -2.939961
    H  -2.529801   1.577777  -1.417173
    H  -0.065411   2.604158  -1.312254
    H   1.764399  -0.013664  -2.473758
    H   2.291076   2.316368  -0.027909
    C   0.352119  -1.260450   0.959927
    C  -1.159436   1.294195   0.636333
