32
B14C2H16
    B  -1.154973  -1.056412   1.032637
    B  -0.644390   0.494271   1.835649
    B  -1.845606   0.626352   0.640307
    B  -1.845600  -0.626362  -0.640312
    B  -0.661919  -1.840656  -0.505890
    B   0.643519  -1.841627   0.527600
    B  -0.661931   1.840652   0.505888
    B   1.153261   1.053984   1.023244
    B   1.841406  -0.627171   0.637823
    B   1.153269  -1.053978  -1.023241
    B  -1.154976   1.056406  -1.032639
    B  -0.644382  -0.494274  -1.835650
    B   1.841404   0.627180  -0.637819
    B   0.643510   1.841630  -0.527599
    H  -2.937467  -0.948529  -0.979667
    H  -2.937475   0.948512   0.979659
    H  -0.981295   0.825043   2.926774
    H  -1.797732  -1.764800   1.737873
    H   0.998624  -0.809679   2.817904
    H   0.997325  -2.917646   0.887539
    H  -1.008264  -2.922364  -0.858166
    H  -0.981284  -0.825048  -2.926777
    H   1.810075  -1.755805  -1.720370
    H  -1.797738   1.764791  -1.737877
    H  -1.008282   2.922358   0.858163
    H   1.810061   1.755815   1.720375
    H   2.930205  -0.953445   0.979495
    H   0.997309   2.917652  -0.887537
    H   2.930202   0.953461  -0.979487
    H   0.998628   0.809684  -2.817902
    C   0.657256  -0.483600   1.794775
    C   0.657259   0.483603  -1.794775
