32
B14C2H16
    B   1.697721   1.330087  -0.020636
    B   0.408919   1.234931   1.158884
    B  -1.261433   1.413306   0.688212
    B  -0.059508  -1.511688  -0.747866
    B   1.685790  -1.334218  -0.021504
    B  -1.719956  -0.909944  -0.920483
    B  -2.266658  -0.015734   0.500301
    B   1.782825   0.001051   1.178336
    B   0.402555  -1.231340   1.165775
    B  -0.939006  -0.006603   1.669074
    B  -1.273483  -1.435841   0.689453
    B  -0.056272   1.506353  -0.735530
    B   1.256052   0.012614  -1.431285
    B  -0.474860  -0.008161  -1.752645
    H  -1.124052   0.015996   2.836665
    H   2.498778   0.005737   2.115986
    H  -1.751603  -2.413952   1.148317
    H   0.602101  -2.089432   1.962828
    H   0.073527  -2.545444  -1.310398
    H  -2.514649  -1.419921  -1.625576
    H  -3.421971   0.076627   0.713748
    H  -1.792459   2.407496   1.034842
    H   0.579793   2.109152   1.944964
    H   3.463143  -0.004790  -0.633102
    H   2.296865  -2.342235  -0.069990
    H  -0.623851   0.067302  -2.919471
    H  -2.295385   1.383540  -1.436436
    H  -0.017929   2.542279  -1.302054
    H   1.719331   0.013687  -2.519836
    H   2.283975   2.350213  -0.105359
    C  -1.606659   0.802169  -0.840294
    C   2.424396  -0.003344  -0.343309
