32
B14C2H16
    B  -0.640621   0.506751   1.802675
    B  -1.832445   0.644619   0.590022
    B  -1.862132  -0.644590  -0.635451
    B  -0.657785  -1.827771  -0.494034
    B   0.682564  -0.510411   1.845598
    B   0.683873  -1.836436   0.509928
    B  -0.621765   1.821637   0.462082
    B   1.168519   1.029925   1.061930
    B   1.863251  -0.630602   0.636340
    B   1.143982  -1.017065  -1.033355
    B  -1.177164   1.005946  -1.086270
    B  -0.681446  -0.517579  -1.834651
    B   1.834887   0.646624  -0.612387
    B   0.609507   0.540838  -1.814693
    H  -2.958649  -0.993816  -0.894868
    H  -2.912515   0.963518   0.936923
    H  -1.027350   0.814750   2.874598
    H  -1.710623  -1.586350   1.613120
    H   0.989196  -0.863658   2.929952
    H   0.990898  -2.915451   0.879713
    H  -1.034347  -2.913377  -0.767080
    H  -1.020992  -0.881799  -2.905838
    H   1.784942  -1.703873  -1.751290
    H  -1.807157   1.722723  -1.781118
    H  -0.956398   2.906502   0.787997
    H   1.794233   1.755488   1.750611
    H   2.953343  -0.955809   0.953804
    H   1.000373   2.708058  -0.729884
    H   2.899943   1.019703  -0.955542
    H   0.949404   0.949068  -2.868515
    C   0.672849   1.737236  -0.443457
    C  -1.120375  -0.974800   0.973139
