32
B14C2H16
    B  -0.995110  -1.011347   1.009534
    B  -0.608226   0.643599   1.840591
    B  -1.893892   0.583006   0.712958
    B  -1.924306  -0.514462  -0.598495
    B  -0.262834  -1.442111  -0.997465
    B   0.578520  -0.590346   1.835541
    B   0.601979  -1.790541   0.561389
    B  -0.625038   1.822129   0.541838
    B   1.039074   1.060617   1.072320
    B   1.922147  -0.602929   0.771523
    B  -1.377234   1.198829  -0.932239
    B   1.803875   0.506088  -0.643710
    B   0.547964   1.654219  -0.682806
    B   0.620656   0.058403  -1.839629
    H  -2.938429  -1.070414  -0.832425
    H  -2.961717   0.771904   1.187280
    H  -0.890096   1.012374   2.928119
    H  -1.657017  -1.831579   1.548909
    H   0.815407  -0.922790   2.946810
    H   0.707644  -2.948592   0.755064
    H  -0.428311  -2.487735  -1.523571
    H  -1.370273  -0.385589  -2.776364
    H   2.110127  -1.777469  -1.265814
    H  -2.027543   1.960069  -1.561083
    H  -0.890176   2.944540   0.808952
    H   1.721398   1.797469   1.697583
    H   3.012421  -0.865648   1.135640
    H   0.882924   2.659364  -1.211056
    H   2.846742   0.854228  -1.074987
    H   1.141088   0.049388  -2.901051
    C  -0.944986  -0.195517  -1.803016
    C   1.443223  -1.139160  -0.710341
