32
B14C2H16
    B  -1.232748  -1.096043   0.968358
    B  -0.634006   0.437939   1.854724
    B  -1.867274   0.586609   0.693426
    B  -1.867268  -0.586619  -0.693430
    B  -0.681438  -1.815103  -0.540039
    B   0.566013  -1.778828   0.576624
    B  -0.681449   1.815100   0.540037
    B   1.172433   1.072285   0.992969
    B   1.854932  -0.596155   0.653911
    B   1.172442  -1.072279  -0.992966
    B  -1.232752   1.096036  -0.968361
    B  -0.633999  -0.437942  -1.854726
    B   1.854931   0.596165  -0.653907
    B   0.566005   1.778830  -0.576623
    H  -2.942643  -0.870318  -1.087487
    H  -2.942650   0.870301   1.087480
    H  -0.907141   0.725994   2.965880
    H  -1.794751  -1.816669   1.714480
    H   1.057411  -0.674201   2.674699
    H   0.929689  -2.809907   1.015715
    H  -0.935943  -2.904280  -0.915555
    H  -0.907130  -0.725999  -2.965882
    H   1.813515  -1.759593  -1.703272
    H  -1.794758   1.816660  -1.714484
    H  -0.935961   2.904275   0.915552
    H   1.813500   1.759603   1.703277
    H   2.910219  -0.934695   1.051509
    H   0.929676   2.809911  -1.015713
    H   2.910216   0.934711  -1.051501
    H   1.057415   0.674206  -2.674697
    C   0.691756  -0.398633   1.699006
    C   0.691759   0.398637  -1.699005
