32
B14C2H16
    B   2.584005   0.080610  -0.459437
    B   1.654868   1.419177   0.112553
    B   0.436072   0.951080   1.346458
    B  -1.189286   1.386419   0.608493
    B  -0.251362  -1.824423  -0.426467
    B   1.357810  -1.110674  -0.460708
    B  -1.708956  -0.990332  -0.861951
    B  -2.285366   0.042086   0.448317
    B   1.892536  -0.056108   1.037943
    B   0.295920  -1.112311   1.202526
    B  -1.076217   0.045418   1.713884
    B  -1.419412  -1.442453   0.831443
    B   0.043957   1.473321  -0.805406
    B  -0.187758  -0.391356  -1.599565
    H  -1.380769   0.173136   2.847811
    H   2.567629  -0.250954   1.986114
    H  -1.959172  -2.347750   1.363931
    H   0.715750  -1.843075   2.032870
    H  -0.188448  -2.952665  -0.768980
    H  -2.474865  -1.446869  -1.633646
    H  -3.443755   0.240810   0.539810
    H  -1.586408   2.480716   0.800202
    H   0.634126   1.654016   2.283736
    H   3.681568   0.007672  -0.874642
    H   1.987376  -1.955919  -1.003290
    H  -0.240834  -0.507452  -2.772676
    H  -2.070252   1.217429  -1.600138
    H  -0.031141   2.500172  -1.386763
    H   1.625802   0.841145  -2.324972
    H   2.116402   2.504792   0.122164
    C  -1.453414   0.672981  -0.899570
    C   1.329634   0.541254  -1.328434
