34
B15C2H17
    B   1.478171   0.991494  -1.125575
    B   0.000692   0.161632  -1.802878
    B  -1.464613   0.959926  -1.130948
    B  -1.477172  -0.775517  -1.284987
    B   1.505376   1.394601   0.590233
    B   2.399535   0.023498  -0.005698
    B   0.012828   1.769735  -0.364106
    B   1.465463  -0.743697  -1.282441
    B  -0.012414  -1.676908  -0.672784
    B  -1.505645  -1.477192   0.331842
    B  -2.399479  -0.021931  -0.011584
    B   1.462872  -0.110563   1.472816
    B  -0.006641  -1.224418   1.315761
    B  -1.463949  -0.152860   1.467944
    B   0.005580   0.971183   1.512309
    H  -2.003449  -1.318086  -2.192936
    H   0.001140   0.267307  -2.982234
    H   2.005212   1.686659  -1.922252
    H  -2.045470   1.723303  -1.815713
    H  -3.567283   0.118438   0.054263
    H   0.082969  -2.775634  -1.095362
    H   2.046879  -1.373242  -2.091560
    H   3.567292  -0.126471   0.034969
    H   2.070910   2.339714   1.017564
    H  -0.082274   2.926085  -0.584740
    H  -1.922908   2.094423   0.902634
    H  -2.071495  -2.483139   0.583957
    H   0.072916  -2.007210   2.196321
    H  -0.074662   1.585059   2.517892
    H  -2.002805  -0.132583   2.515640
    H   2.000856  -0.316681   2.500694
    H   1.922332  -2.221579   0.517479
    C   1.383766  -1.309002   0.303061
    C  -1.384109   1.234408   0.529825
