34
B15C2H17
    B   1.486292   0.975784  -1.120531
    B   0.019082   0.130197  -1.784066
    B  -1.463120   1.004777  -1.115169
    B   1.480251   1.373129   0.586548
    B   2.428355   0.003826   0.002664
    B   0.006689   1.770552  -0.397435
    B   1.524252  -0.768379  -1.282083
    B   0.041062  -1.654475  -0.706174
    B  -2.401956   0.051062   0.020692
    B  -1.480499   1.400428   0.597372
    B   1.485346  -0.134646   1.480599
    B   0.017917  -1.202685   1.327463
    B  -1.463868  -0.111403   1.495512
    B   0.006159   0.937777   1.553712
    B   1.524050  -1.458684   0.331554
    H  -1.931531  -1.224311  -1.891212
    H  -0.099557   0.148717  -2.959675
    H   1.966509   1.659442  -1.957963
    H  -2.078338   1.539540  -1.966247
    H  -3.556564  -0.154637  -0.067416
    H  -0.140969  -2.726232  -1.163563
    H   2.010684  -1.338519  -2.197413
    H   3.609483   0.001790   0.002150
    H   2.009912   2.345808   1.001422
    H  -0.018278   2.917144  -0.694690
    H  -2.073508   2.339573   0.998538
    H  -1.933480  -2.211307   0.423416
    H  -0.101494  -2.037478   2.155167
    H  -0.020014   1.517926   2.586321
    H  -2.079318  -0.354079   2.470798
    H   1.964938  -0.264620   2.554123
    H   2.011947  -2.513295   0.553418
    C  -1.374773  -0.668587  -1.151266
    C  -1.375243  -1.293383   0.312840
