34
B15C2H17
    B   1.469826   0.987375  -1.120746
    B   0.005944   0.221847  -1.825473
    B  -1.447285   0.971377  -1.116863
    B  -1.425546  -0.763726  -1.285180
    B   1.489084   1.375541   0.587558
    B   2.385640  -0.016355  -0.006289
    B   0.007845   1.762338  -0.377054
    B   1.430770  -0.756691  -1.283611
    B  -1.426766  -1.456292   0.336606
    B  -2.359098  -0.029112  -0.013108
    B   1.467998  -0.126410   1.488947
    B   0.004879  -1.166697   1.420655
    B  -1.447537  -0.134307   1.473371
    B   0.007344   0.946927   1.532695
    B   1.430511  -1.450791   0.341567
    H  -1.960306  -1.334630  -2.165210
    H  -0.019287   0.296632  -3.003522
    H   2.004714   1.669542  -1.921491
    H  -2.043467   1.678627  -1.843670
    H  -3.533421   0.007181   0.001545
    H  -0.008222  -2.554535  -1.088139
    H   1.928660  -1.350583  -2.172296
    H   3.562864  -0.056348  -0.022555
    H   2.047488   2.331590   0.996288
    H  -0.069928   2.918634  -0.598234
    H  -1.933507   2.109761   0.900578
    H  -1.962974  -2.486060   0.532504
    H  -0.020691  -1.965704   2.289608
    H  -0.071030   1.586554   2.520900
    H  -2.042923  -0.169482   2.487302
    H   2.001637  -0.232505   2.536124
    H   1.929390  -2.502891   0.527734
    C  -1.399367   1.252867   0.534537
    C  -0.002819  -1.562923  -0.665670
