34
B15C2H17
    B   1.467171   0.975112  -1.122353
    B   0.016572   0.101327  -1.796054
    B  -1.452061   1.001705  -1.111378
    B   1.482609   1.375711   0.587681
    B   2.420279   0.003300   0.002678
    B   0.004690   1.791571  -0.362158
    B   1.516883  -0.767836  -1.281314
    B   0.047388  -1.672174  -0.714147
    B  -2.397654   0.052248   0.022178
    B  -1.484640   1.401222   0.597744
    B   1.464114  -0.136441   1.481632
    B   0.015791  -1.230591   1.314860
    B  -1.450940  -0.109487   1.491673
    B   0.004047   0.981691   1.543117
    B   1.516039  -1.456927   0.332343
    H  -1.939935  -1.216484  -1.888042
    H  -0.100585   0.124686  -2.971313
    H   1.951835   1.656485  -1.958865
    H  -2.050367   1.542063  -1.970658
    H  -3.551240  -0.157730  -0.067415
    H  -0.146512  -2.741282  -1.171400
    H   2.023073  -1.327919  -2.192583
    H   3.601069   0.003339   0.003382
    H   2.038335   2.335773   0.998196
    H  -0.019422   2.938059  -0.658414
    H  -2.092337   2.332677   0.995633
    H  -1.941019  -2.204363   0.426665
    H  -0.102558  -2.063695   2.143950
    H  -0.020284   1.561615   2.575514
    H  -2.049023  -0.356498   2.476390
    H   1.947642  -0.269464   2.552851
    H   2.022366  -2.502428   0.558127
    C  -1.370448  -0.669680  -1.151339
    C  -1.370461  -1.294833   0.312225
