34
B15C2H17
    B   1.468640   0.987726  -1.129684
    B   0.011911   0.412184  -1.898449
    B  -1.460348   0.981191  -1.133311
    B  -1.320424  -0.766127  -1.312696
    B   1.498837   1.356523   0.579814
    B   2.354128  -0.051611  -0.021416
    B   0.002093   1.798302  -0.403386
    B   1.351740  -0.775188  -1.301541
    B  -1.323067  -1.477531   0.354106
    B  -1.467400   1.354672   0.577848
    B   1.467467  -0.133322   1.495273
    B   0.010662  -1.088543   1.608649
    B  -1.460841  -0.139193   1.491693
    B   0.001588   0.953034   1.576843
    B   1.352623  -1.476184   0.340448
    H  -1.955679  -1.344895  -2.119281
    H  -0.008726   0.472067  -3.079779
    H   2.093421   1.615126  -1.915918
    H  -2.195593   1.559657  -1.852508
    H  -3.241526  -0.108380  -0.047621
    H  -0.016448  -2.619293  -1.114839
    H   1.850745  -1.387380  -2.180299
    H   3.532381  -0.112234  -0.047175
    H   2.078013   2.303841   0.984391
    H  -0.021959   2.962190  -0.618612
    H  -2.185123   2.214663   0.944750
    H  -1.959778  -2.459434   0.494016
    H  -0.010315  -1.901689   2.467635
    H  -0.022793   1.602397   2.566444
    H  -2.195868  -0.257576   2.407217
    H   2.090685  -0.266331   2.493290
    H   1.853027  -2.533560   0.506729
    C  -0.008494  -1.622203  -0.690283
    C  -2.163161  -0.052149  -0.022943
