34
B15C2H17
    B   1.480362   0.991869  -1.126272
    B   0.000689   0.161438  -1.800732
    B  -1.466278   0.960553  -1.130648
    B  -1.479364  -0.775759  -1.285745
    B   1.506029   1.394854   0.590350
    B   2.402481   0.024088  -0.006690
    B   0.013485   1.765803  -0.366386
    B   1.467142  -0.744363  -1.282268
    B  -0.013073  -1.672635  -0.674305
    B  -1.506302  -1.477464   0.331917
    B  -2.402428  -0.022336  -0.012667
    B   1.469142  -0.111414   1.473245
    B  -0.006810  -1.214344   1.319576
    B  -1.470222  -0.152093   1.468507
    B   0.005745   0.960613   1.514283
    H  -2.003277  -1.319528  -2.194289
    H   0.001133   0.267120  -2.980153
    H   2.005027   1.688335  -1.923319
    H  -2.045810   1.725367  -1.814935
    H  -3.570145   0.118981   0.052755
    H   0.084313  -2.771520  -1.096226
    H   2.047212  -1.375422  -2.091174
    H   3.570156  -0.126715   0.033382
    H   2.068446   2.341633   1.017945
    H  -0.083613   2.922197  -0.586333
    H  -1.918687   2.096644   0.901998
    H  -2.069026  -2.485111   0.583970
    H   0.073595  -1.997430   2.199855
    H  -0.075373   1.574814   2.519647
    H  -2.010197  -0.131421   2.515575
    H   2.008260  -0.317815   2.500426
    H   1.918146  -2.223703   0.516482
    C   1.385015  -1.307639   0.302551
    C  -1.385351   1.233158   0.529083
