34
B15C2H17
    B   1.442512   0.991841  -1.135257
    B   0.000698   0.208380  -1.854232
    B  -1.441877   0.991197  -1.136316
    B  -1.424146  -0.758870  -1.284596
    B   1.424085   1.375432   0.578698
    B   2.344408  -0.005999   0.008971
    B  -0.000219   1.809940  -0.456497
    B   1.425816  -0.758030  -1.283686
    B  -1.407577  -1.460668   0.336293
    B  -2.344404  -0.007045   0.007081
    B  -1.425306   1.374850   0.577638
    B   1.405112  -0.136137   1.493111
    B  -0.000322  -1.241288   1.416419
    B  -1.406483  -0.136803   1.492032
    B   1.407854  -1.460024   0.337281
    H  -1.956475  -1.350027  -2.154128
    H   0.001109   0.238241  -3.035452
    H   2.023759   1.667161  -1.908838
    H  -2.023054   1.665939  -1.910453
    H  -3.521537  -0.028915   0.031292
    H   0.000947  -2.562537  -1.109689
    H   1.958891  -1.349306  -2.152656
    H   3.521517  -0.027055   0.034978
    H   1.956934   2.316195   1.047744
    H  -0.000465   2.976387  -0.645833
    H  -1.958546   2.315557   1.046364
    H  -1.935091  -2.493543   0.545932
    H  -0.000380  -2.018891   2.305086
    H  -0.001159   1.449807   2.386219
    H  -1.932139  -0.205024   2.544612
    H   1.930436  -0.203859   2.545909
    H   1.935608  -2.492734   0.547156
    C  -0.000753   0.890646   1.465529
    C   0.000666  -1.574067  -0.681304
