34
B15C2H17
    B   1.468263   0.982200  -1.126019
    B   0.002798   0.408813  -1.886845
    B  -1.473484   0.986013  -1.140441
    B  -1.365659  -0.769129  -1.331290
    B   1.498376   1.354538   0.571459
    B   2.360327  -0.054706  -0.020404
    B   0.004589   1.789527  -0.409804
    B   1.354929  -0.778431  -1.297304
    B  -1.358037  -1.476304   0.300448
    B  -2.350350  -0.057479  -0.052773
    B  -1.473730   1.348520   0.558535
    B   1.497478  -0.127742   1.503529
    B   0.018989  -1.029217   1.602925
    B   0.020435   0.921785   1.580879
    B   1.369607  -1.473393   0.352001
    H  -1.873680  -1.390663  -2.196860
    H   0.006573   0.444409  -3.069442
    H   2.090290   1.620569  -1.905538
    H  -2.112880   1.633804  -1.896501
    H  -3.516374  -0.115379   0.100650
    H  -0.002393  -2.610600  -1.088276
    H   1.850617  -1.398643  -2.172045
    H   3.539135  -0.107085  -0.039467
    H   2.041270   2.314510   0.997472
    H  -0.011591   2.955214  -0.612484
    H  -2.103980   2.201554   1.071864
    H  -1.889910  -2.482938   0.600793
    H  -0.097110  -1.831823   2.460556
    H  -0.093120   1.518168   2.592905
    H  -1.977599  -0.230306   2.234386
    H   2.114725  -0.258045   2.505237
    H   1.833542  -2.542713   0.542337
    C  -0.005867  -1.607433  -0.677753
    C  -1.365759  -0.136844   1.346678
