34
B15C2H17
    B   1.413108   1.020463  -1.162298
    B   0.000682   0.553274  -2.026556
    B  -1.412537   1.019771  -1.163415
    B  -1.152277  -0.749377  -1.306451
    B   1.206757   1.383202   0.573932
    B   2.277569   0.028502  -0.024068
    B  -0.000088   1.924789  -0.802988
    B   1.153985  -0.748822  -1.305558
    B  -1.517578  -1.478761   0.335129
    B  -2.277556   0.027476  -0.025790
    B  -1.207961   1.382618   0.573021
    B   1.499789  -0.124428   1.504343
    B  -0.000192  -1.265355   1.376933
    B  -1.500989  -0.124979   1.503165
    B   1.518047  -1.478093   0.336276
    H  -1.547723  -1.440402  -2.178296
    H   0.000998   0.672255  -3.199711
    H   2.271364   1.557801  -1.780919
    H  -2.270681   1.556422  -1.782787
    H  -3.456779   0.017375  -0.047874
    H   0.000792  -2.743239  -0.591815
    H   1.550155  -1.439607  -2.177259
    H   3.456817   0.018835  -0.045147
    H   1.626879   2.335653   1.131095
    H  -0.000313   3.083054  -1.028102
    H  -1.628756   2.335053   1.129699
    H  -2.155255  -2.462175   0.456894
    H  -0.000506  -2.001422   2.298301
    H  -0.001241   0.979660   2.611504
    H  -2.112209  -0.113995   2.511505
    H   2.110224  -0.113112   2.513152
    H   2.156194  -2.461079   0.459043
    C  -0.000753   0.555855   1.614237
    C   0.000451  -1.706461  -0.279787
