34
B15C2H17
    B   1.485076   0.982775  -1.119614
    B   0.000644   0.160418  -1.790022
    B  -1.469247   0.965322  -1.113485
    B  -1.483945  -0.768085  -1.277570
    B   1.489125   1.378694   0.587562
    B   2.401019   0.012275  -0.003252
    B   0.008929   1.746425  -0.384882
    B   1.470291  -0.751897  -1.266524
    B  -0.008380  -1.650327  -0.688977
    B  -1.489801  -1.461071   0.332206
    B  -2.401051  -0.011455  -0.007311
    B   1.475544  -0.124971   1.459753
    B  -0.004314  -1.175080   1.329182
    B  -1.476868  -0.136046   1.457566
    B   0.003246   0.919744   1.517082
    H  -2.031331  -1.302905  -2.174448
    H   0.001038   0.265728  -2.966152
    H   2.032782   1.668882  -1.906578
    H  -2.038713   1.702542  -1.832948
    H  -3.573727   0.062965   0.030622
    H   0.058453  -2.749691  -1.111104
    H   2.040205  -1.349784  -2.105045
    H   3.573662  -0.067703   0.022528
    H   2.050017   2.323117   1.016683
    H  -0.057884   2.903276  -0.605110
    H  -1.914396   2.123061   0.915582
    H  -2.050835  -2.466644   0.586611
    H   0.048341  -1.950491   2.215486
    H  -0.049921   1.525510   2.526925
    H  -2.025466  -0.159810   2.498378
    H   2.023800  -0.286666   2.488404
    H   1.914273  -2.251925   0.525059
    C   1.409705  -1.328912   0.306255
    C  -1.409854   1.253482   0.536544
