34
B15C2H17
    B   1.471281   0.975108  -1.122088
    B   0.015750   0.109094  -1.792131
    B  -1.457144   1.002045  -1.111155
    B   1.481280   1.376179   0.587892
    B   2.421345   0.003867   0.002892
    B   0.003958   1.784988  -0.373222
    B   1.517349  -0.767626  -1.280666
    B   0.046848  -1.670555  -0.713512
    B  -2.399742   0.053550   0.022456
    B  -1.484009   1.399717   0.597041
    B   1.468440  -0.136393   1.481420
    B   0.015164  -1.222563   1.317855
    B  -1.456209  -0.109105   1.491422
    B   0.003352   0.968574   1.546276
    B   1.516607  -1.456368   0.331833
    H  -1.938813  -1.217026  -1.888754
    H  -0.098845   0.134447  -2.967617
    H   1.958386   1.656100  -1.957459
    H  -2.056390   1.541272  -1.970464
    H  -3.552189  -0.161828  -0.069074
    H  -0.145956  -2.739830  -1.170787
    H   2.019233  -1.329538  -2.193171
    H   3.602170   0.004587   0.003825
    H   2.032101   2.338479   0.999268
    H  -0.018167   2.931795  -0.668595
    H  -2.082740   2.335888   0.997139
    H  -1.939777  -2.205124   0.426867
    H  -0.100972  -2.054219   2.148703
    H  -0.019217   1.549556   2.578164
    H  -2.055017  -0.356111   2.475671
    H   1.954274  -0.268632   2.551669
    H   2.018611  -2.504000   0.557326
    C  -1.370386  -0.670479  -1.151215
    C  -1.370157  -1.295097   0.311601
