34
B15C2H17
    B   1.465134   0.994939  -1.132358
    B   0.012577   0.553669  -1.917317
    B  -1.462631   0.998822  -1.157630
    B  -1.220795  -0.764018  -1.315256
    B   1.489043   1.356776   0.587205
    B   2.348060  -0.040858  -0.038322
    B  -0.004247   1.824782  -0.446094
    B   1.228355  -0.767320  -1.296146
    B  -2.329313  -0.029044  -0.050375
    B  -1.478220   1.362700   0.571032
    B   1.492979  -0.122803   1.488886
    B   0.027349  -1.176119   1.465808
    B  -1.469072  -0.115698   1.473586
    B   0.007438   0.929285   1.557110
    B   1.449207  -1.481880   0.357566
    H  -1.707300  -1.462260  -2.129671
    H   0.001927   0.646077  -3.096013
    H   2.146314   1.560757  -1.919921
    H  -2.166357   1.562114  -1.924946
    H  -3.489041  -0.232080  -0.088749
    H  -0.062365  -2.722613  -0.743311
    H   1.618695  -1.434309  -2.188751
    H   3.523259  -0.124290  -0.107374
    H   2.064802   2.302736   0.999976
    H  -0.003958   2.992965  -0.633967
    H  -2.095918   2.277971   0.990655
    H  -1.916675  -2.244564   0.486415
    H  -0.072704  -2.045411   2.257039
    H  -0.023304   1.521975   2.581547
    H  -2.097308  -0.341298   2.445850
    H   2.056626  -0.245937   2.521608
    H   2.022504  -2.505275   0.495927
    C  -1.353834  -1.336168   0.324886
    C  -0.000806  -1.692870  -0.419490
