34
B15C2H17
    B   1.472606   0.994476  -1.136442
    B   0.009456   0.516765  -1.907027
    B  -1.471737   0.996450  -1.154866
    B  -1.273828  -0.751728  -1.318021
    B   1.498611   1.362962   0.589709
    B   2.352685  -0.052138  -0.033923
    B  -0.002398   1.808071  -0.446125
    B   1.266756  -0.766923  -1.284021
    B  -2.322078  -0.043650  -0.048671
    B  -1.485897   1.362374   0.574407
    B   1.490115  -0.130054   1.488096
    B   0.029883  -1.121995   1.552141
    B  -1.455041  -0.129358   1.465532
    B   0.006147   0.925412   1.566204
    B   1.410293  -1.475637   0.349937
    H  -1.781609  -1.444171  -2.125124
    H   0.003313   0.569654  -3.088570
    H   2.129788   1.572878  -1.934005
    H  -2.151334   1.569129  -1.935980
    H  -3.486021  -0.224978  -0.058583
    H  -0.062298  -2.689966  -0.859727
    H   1.698085  -1.406709  -2.178802
    H   3.528690  -0.128709  -0.093135
    H   2.073137   2.306660   1.006941
    H  -0.015576   2.977149  -0.632040
    H  -2.102813   2.274236   0.999559
    H  -1.873230  -2.251017   0.487110
    H  -0.059885  -2.007579   2.326392
    H  -0.025560   1.536517   2.579482
    H  -2.111836  -0.357467   2.419784
    H   2.069536  -0.270126   2.511278
    H   1.957860  -2.510416   0.513328
    C  -1.313566  -1.340961   0.316753
    C  -0.001836  -1.668399  -0.512186
