34
B15C2H17
    B   1.467803   0.994722  -1.130115
    B   0.012421   0.521582  -1.911755
    B  -1.465454   0.999044  -1.153680
    B  -1.252277  -0.763069  -1.318883
    B   1.490400   1.357694   0.586552
    B   2.353528  -0.041497  -0.034429
    B  -0.003569   1.818526  -0.436713
    B   1.259164  -0.767155  -1.295721
    B  -2.333370  -0.028568  -0.046446
    B  -1.479451   1.364026   0.572401
    B   1.490906  -0.122519   1.487915
    B   0.028992  -1.159579   1.488843
    B  -1.464776  -0.117801   1.472700
    B   0.007589   0.930850   1.559558
    B   1.440668  -1.480162   0.356303
    H  -1.750150  -1.457818  -2.129464
    H   0.000965   0.591942  -3.092256
    H   2.135765   1.572467  -1.920122
    H  -2.156827   1.572724  -1.924321
    H  -3.493988  -0.227832  -0.073515
    H  -0.063408  -2.702669  -0.803164
    H   1.659468  -1.429904  -2.187317
    H   3.529522  -0.119438  -0.094559
    H   2.064121   2.304784   0.999450
    H  -0.004140   2.985550  -0.632050
    H  -2.095786   2.279674   0.992822
    H  -1.896536  -2.250112   0.486699
    H  -0.071961  -2.028295   2.280519
    H  -0.023214   1.527237   2.581657
    H  -2.097818  -0.348901   2.440919
    H   2.055620  -0.251916   2.519807
    H   2.002138  -2.509067   0.502800
    C  -1.344074  -1.335574   0.320228
    C  -0.001850  -1.678194  -0.465255
