34
B15C2H17
    B   1.453989   0.989217  -1.126911
    B   0.000722   0.230517  -1.862111
    B  -1.453369   0.988544  -1.128041
    B  -1.393287  -0.760713  -1.303534
    B   1.453223   1.380871   0.585816
    B   2.330610  -0.036430   0.009327
    B  -0.000247   1.805709  -0.411979
    B   1.394983  -0.759864  -1.302663
    B  -1.344146  -1.457347   0.332907
    B  -2.330615  -0.037464   0.007456
    B  -1.454504   1.380283   0.584654
    B   1.392730  -0.117767   1.504502
    B  -1.394174  -0.118304   1.503460
    B  -0.000838   1.018089   1.575735
    B   1.344503  -1.456772   0.333755
    H  -1.924299  -1.392684  -2.144224
    H   0.001145   0.255659  -3.043017
    H   2.049163   1.631658  -1.915866
    H  -2.048393   1.630388  -1.917592
    H  -3.503425  -0.128577   0.027375
    H   0.000964  -2.553819  -1.184122
    H   1.926681  -1.391914  -2.142832
    H   3.503455  -0.126651   0.031037
    H   2.049095   2.301524   1.018029
    H  -0.000448   2.957583  -0.674988
    H  -2.050750   2.300899   1.016466
    H  -1.813955  -2.508852   0.573498
    H  -0.000436  -1.785281   2.175942
    H  -0.001239   1.554011   2.628333
    H  -1.925009  -0.322919   2.535150
    H   1.923337  -0.321951   2.536430
    H   1.814550  -2.508129   0.574576
    C   0.000699  -1.565299  -0.773464
    C  -0.000297  -1.073464   1.376303
