34
B15C2H17
    B   1.476151   0.986052  -1.117880
    B   0.001143   0.174173  -1.868200
    B  -1.476584   0.982857  -1.125066
    B  -1.461912  -0.763659  -1.348241
    B   1.505535   1.364461   0.567622
    B   2.340433  -0.061272   0.006526
    B   0.005906   1.771717  -0.356251
    B   1.457190  -0.766582  -1.310832
    B  -1.189405  -1.463946   0.293986
    B  -2.325537  -0.076178  -0.016328
    B  -1.478743   1.349401   0.560491
    B   1.470378  -0.124049   1.515724
    B   0.010745  -0.954606   1.745344
    B   0.016126   0.959338   1.604685
    B   1.194924  -1.469668   0.344577
    H  -2.072344  -1.361716  -2.162022
    H   0.005318   0.178229  -3.050846
    H   2.046309   1.664849  -1.899972
    H  -2.077505   1.669932  -1.874870
    H  -3.489300  -0.184142   0.128894
    H  -0.001186  -2.431190  -1.454258
    H   2.054915  -1.373961  -2.128473
    H   3.515064  -0.174899   0.020155
    H   2.075253   2.313222   0.983441
    H  -0.020232   2.930956  -0.595938
    H  -2.123036   2.206184   1.050251
    H  -1.636384  -2.513309   0.584516
    H  -0.101716  -1.667793   2.677639
    H  -0.095323   1.581492   2.601176
    H  -2.007202  -0.262242   2.218865
    H   2.147983  -0.311459   2.468865
    H   1.587418  -2.567478   0.530344
    C  -0.001988  -1.467610  -0.960186
    C  -1.351975  -0.136353   1.365670
