34
B15C2H17
    B   1.467303   0.993859  -1.133179
    B   0.012445   0.560291  -1.913384
    B  -1.465856   0.999248  -1.158441
    B  -1.218104  -0.762129  -1.316163
    B   1.494776   1.356236   0.588253
    B   2.346890  -0.042117  -0.037966
    B  -0.004113   1.823377  -0.441181
    B   1.219280  -0.768703  -1.295080
    B  -2.328744  -0.031037  -0.052194
    B  -1.484185   1.363341   0.571877
    B   1.490883  -0.123371   1.489604
    B   0.026508  -1.184085   1.458210
    B  -1.468767  -0.115224   1.473711
    B   0.006832   0.939879   1.545825
    B   1.452681  -1.483000   0.358792
    H  -1.698571  -1.465132  -2.129944
    H   0.003413   0.662815  -3.091273
    H   2.148944   1.555812  -1.922800
    H  -2.167712   1.561099  -1.928234
    H  -3.488198  -0.235841  -0.091697
    H  -0.061882  -2.726804  -0.734525
    H   1.609011  -1.433541  -2.189628
    H   3.521831  -0.127967  -0.109719
    H   2.073527   2.300512   1.000499
    H  -0.004947   2.992028  -0.626439
    H  -2.103012   2.277329   0.992251
    H  -1.919387  -2.243873   0.487129
    H  -0.070318  -2.053202   2.250094
    H  -0.022611   1.535274   2.568947
    H  -2.091806  -0.341211   2.449096
    H   2.049805  -0.244039   2.525091
    H   2.028206  -2.505160   0.496554
    C  -1.354180  -1.336622   0.326695
    C   0.000476  -1.697290  -0.411372
