34
B15C2H17
    B   1.486299   0.989169  -1.125140
    B   0.000689   0.160657  -1.792563
    B  -1.468951   0.963637  -1.118988
    B  -1.485249  -0.773349  -1.284178
    B   1.497723   1.388972   0.589183
    B   2.405662   0.018957  -0.006083
    B   0.012304   1.750270  -0.379056
    B   1.469930  -0.749368  -1.271456
    B  -0.011840  -1.655125  -0.683895
    B  -1.498216  -1.471405   0.331877
    B  -2.405673  -0.017477  -0.011234
    B   1.477825  -0.120657   1.463734
    B  -0.006282  -1.181764   1.325460
    B  -1.478993  -0.141141   1.460734
    B   0.005268   0.927259   1.514547
    H  -2.021215  -1.311925  -2.188053
    H   0.001134   0.266238  -2.971033
    H   2.022723   1.680000  -1.918433
    H  -2.041790   1.719971  -1.818168
    H  -3.577193   0.088682   0.040465
    H   0.076308  -2.758049  -1.097156
    H   2.043219  -1.369673  -2.093402
    H   3.577147  -0.094720   0.027172
    H   2.058394   2.334019   1.021443
    H  -0.075709   2.909068  -0.589882
    H  -1.905806   2.106022   0.907325
    H  -2.059100  -2.478189   0.588982
    H   0.063069  -1.962975   2.207927
    H  -0.064749   1.539256   2.521727
    H  -2.023236  -0.140084   2.505857
    H   2.021566  -0.307543   2.492278
    H   1.905410  -2.233754   0.519993
    C   1.395837  -1.306765   0.301493
    C  -1.396088   1.232537   0.527931
