34
B15C2H17
    B   1.485631   0.985992  -1.117062
    B   0.000295   0.184294  -1.859279
    B  -1.485612   0.983256  -1.125381
    B  -1.463602  -0.764328  -1.347228
    B   1.506446   1.363977   0.568328
    B   2.342520  -0.062802   0.007489
    B   0.005484   1.762212  -0.371146
    B   1.459138  -0.766773  -1.310656
    B  -1.187814  -1.464106   0.297149
    B  -2.326368  -0.077167  -0.015622
    B  -1.479252   1.349804   0.560102
    B   1.470030  -0.123751   1.516020
    B   0.010949  -0.956141   1.745021
    B   0.015529   0.957342   1.602377
    B   1.192567  -1.469630   0.347337
    H  -2.070392  -1.363593  -2.162762
    H   0.005657   0.191654  -3.042093
    H   2.056021   1.665333  -1.898266
    H  -2.088622   1.670349  -1.873163
    H  -3.489917  -0.185052   0.131792
    H  -0.001101  -2.425040  -1.458496
    H   2.053647  -1.375917  -2.129183
    H   3.517127  -0.176782   0.020912
    H   2.069414   2.315066   0.987709
    H  -0.018214   2.920614  -0.615615
    H  -2.119434   2.206461   1.055180
    H  -1.633145  -2.514595   0.585811
    H  -0.101053  -1.669768   2.676976
    H  -0.095011   1.581167   2.597951
    H  -2.006131  -0.262503   2.218586
    H   2.146747  -0.310523   2.469933
    H   1.582588  -2.568547   0.531962
    C  -0.002231  -1.463585  -0.960335
    C  -1.351470  -0.136169   1.365059
