34
B15C2H17
    B   1.470498   0.995524  -1.122380
    B   0.012651   0.295330  -1.848296
    B  -1.464533   0.997152  -1.138614
    B  -1.404444  -0.750726  -1.297548
    B   1.488136   1.369589   0.587323
    B   2.389204  -0.023817  -0.010289
    B  -0.000314   1.803819  -0.386249
    B   1.437533  -0.745931  -1.288200
    B  -2.368389  -0.001312  -0.018188
    B  -1.479460   1.384766   0.579952
    B   1.478941  -0.124218   1.490188
    B   0.025658  -1.148609   1.456961
    B  -1.458957  -0.112111   1.482865
    B   0.007042   0.954904   1.563610
    B   1.440175  -1.463273   0.342696
    H  -1.935887  -1.448960  -2.083736
    H  -0.017397   0.228851  -3.030219
    H   2.038662   1.639186  -1.937662
    H  -2.071886   1.614901  -1.943696
    H  -3.528084  -0.209003  -0.024528
    H  -0.063126  -2.544670  -1.008795
    H   1.855625  -1.412861  -2.168538
    H   3.567899  -0.092439  -0.028666
    H   2.056679   2.320325   1.000632
    H  -0.004779   2.959028  -0.643850
    H  -2.090112   2.306912   0.995846
    H  -1.814060  -2.259271   0.472686
    H  -0.077725  -2.026502   2.239429
    H  -0.022095   1.533398   2.596208
    H  -2.063704  -0.385836   2.458028
    H   2.016500  -0.285858   2.532230
    H   1.911805  -2.535549   0.493246
    C  -1.340484  -1.299441   0.313071
    C   0.008848  -1.532543  -0.626108
