34
B15C2H17
    B   1.470030   0.983145  -1.127882
    B  -0.000716   0.168505  -1.814874
    B  -1.469027   0.979066  -1.125091
    B  -1.461048  -0.761682  -1.280084
    B   1.473269   1.373007   0.586310
    B   2.395118  -0.003371  -0.000500
    B  -0.002526   1.772235  -0.404550
    B   1.464910  -0.765046  -1.282576
    B  -1.462363  -1.451296   0.334959
    B  -1.473347   1.368592   0.583696
    B   1.467782  -0.134761   1.491272
    B  -0.001572  -1.197238   1.375221
    B  -1.469384  -0.135129   1.484984
    B  -0.003549   0.934797   1.558885
    B   1.464772  -1.455944   0.334855
    H  -2.030365  -1.304419  -2.165795
    H  -0.009981   0.261365  -3.000016
    H   2.031498   1.664590  -1.921667
    H  -2.047998   1.652515  -1.910051
    H  -3.469998  -0.016461  -0.008374
    H  -0.011613  -2.671641  -1.139618
    H   2.016081  -1.315028  -2.178309
    H   3.580955  -0.013581  -0.003718
    H   2.038945   2.333221   0.996202
    H  -0.012868   2.931190  -0.671091
    H  -2.057545   2.317307   0.988585
    H  -2.032522  -2.465976   0.555229
    H  -0.010850  -1.989344   2.261597
    H  -0.014218   1.545372   2.579400
    H  -2.047683  -0.236101   2.514717
    H   2.028261  -0.236712   2.532989
    H   2.016342  -2.482997   0.557296
    C  -0.001829  -1.642531  -0.699977
    C  -2.356543  -0.004900  -0.002615
