34
B15C2H17
    B   1.413659   1.025727  -1.168158
    B   0.000694   0.548647  -2.014629
    B  -1.413161   1.025054  -1.169288
    B  -1.164386  -0.753824  -1.301082
    B   1.200690   1.386361   0.576437
    B   2.267630   0.019334  -0.023805
    B  -0.000108   1.925385  -0.798964
    B   1.165888  -0.753270  -1.300161
    B  -1.497272  -1.477261   0.328656
    B  -2.267606   0.018288  -0.025605
    B  -1.201815   1.385815   0.575475
    B   1.499488  -0.128916   1.505195
    B  -0.000261  -1.235620   1.418472
    B  -1.500620  -0.129582   1.504011
    B   1.497708  -1.476576   0.329822
    H  -1.607892  -1.418198  -2.170043
    H   0.001161   0.622931  -3.193128
    H   2.243805   1.580635  -1.807944
    H  -2.243076   1.579506  -1.809769
    H  -3.446873   0.025709  -0.055121
    H   0.000865  -2.752399  -0.583903
    H   1.610315  -1.417471  -2.168781
    H   3.446918   0.027332  -0.052327
    H   1.638830   2.340844   1.114772
    H  -0.000302   3.086928  -1.012015
    H  -1.640773   2.340133   1.113432
    H  -2.130601  -2.464397   0.452680
    H  -0.000460  -2.012500   2.306049
    H  -0.001260   0.969148   2.628730
    H  -2.126182  -0.128745   2.503776
    H   2.124298  -0.127733   2.505427
    H   2.131371  -2.463431   0.454386
    C  -0.000771   0.541543   1.633741
    C   0.000518  -1.708645  -0.296931
