34
B15C2H17
    B   1.481020   0.974949  -1.120375
    B   0.017425   0.123117  -1.786001
    B  -1.462803   1.005097  -1.113145
    B   1.479535   1.373469   0.586754
    B   2.424874   0.004453   0.003067
    B   0.005499   1.773224  -0.391617
    B   1.522150  -0.768137  -1.281548
    B   0.044074  -1.662493  -0.709861
    B  -2.403086   0.053859   0.021946
    B  -1.481745   1.399929   0.597049
    B   1.479563  -0.135309   1.480045
    B   0.016592  -1.209232   1.323829
    B  -1.463027  -0.109328   1.494356
    B   0.004946   0.944663   1.551436
    B   1.521903  -1.457952   0.331413
    H  -1.933647  -1.221599  -1.890896
    H  -0.098513   0.149212  -2.961515
    H   1.963748   1.658269  -1.956555
    H  -2.072539   1.539843  -1.968047
    H  -3.555473  -0.162015  -0.070113
    H  -0.142980  -2.733112  -1.167103
    H   2.012594  -1.335281  -2.196796
    H   3.605946   0.005369   0.003885
    H   2.016019   2.342868   1.000353
    H  -0.015056   2.920764  -0.685149
    H  -2.071346   2.340864   0.999074
    H  -1.935032  -2.209141   0.425504
    H  -0.100548  -2.039582   2.156013
    H  -0.016818   1.528276   2.582102
    H  -2.072633  -0.354480   2.472566
    H   1.961313  -0.264933   2.552581
    H   2.013459  -2.510608   0.555360
    C  -1.372527  -0.669925  -1.151437
    C  -1.372470  -1.294347   0.312232
