34
B15C2H17
    B   1.473735   0.982460  -1.126852
    B   0.003196   0.166169  -1.812311
    B  -1.472800   0.977823  -1.126534
    B  -1.461336  -0.765352  -1.275208
    B   1.475991   1.371185   0.586753
    B   2.399562  -0.004628  -0.001154
    B  -0.001936   1.772796  -0.404308
    B   1.472561  -0.762792  -1.280582
    B  -2.393837  -0.003917  -0.000446
    B  -1.477897   1.369568   0.585385
    B   1.471263  -0.136246   1.487499
    B  -0.000319  -1.193198   1.366924
    B  -1.471035  -0.134350   1.483787
    B  -0.001388   0.930949   1.558342
    B   1.467381  -1.455923   0.332762
    H  -2.020690  -1.326185  -2.156401
    H  -0.004191   0.244969  -2.998357
    H   2.034795   1.662046  -1.922374
    H  -2.044338   1.648829  -1.920240
    H  -3.577844  -0.033860  -0.003476
    H  -0.012673  -2.666247  -1.126965
    H   2.020526  -1.318424  -2.174726
    H   3.585092  -0.019062  -0.002971
    H   2.041956   2.329747   0.999257
    H  -0.007169   2.931652  -0.671070
    H  -2.054093   2.320906   0.997550
    H  -1.973991  -2.382873   0.539030
    H  -0.017345  -1.990552   2.246797
    H  -0.008822   1.531236   2.584379
    H  -2.037947  -0.255958   2.517747
    H   2.027934  -0.245094   2.529994
    H   2.015457  -2.484760   0.554746
    C  -1.453223  -1.423121   0.329352
    C   0.003844  -1.637041  -0.696924
