34
B15C2H17
    B   1.459131   0.975591  -1.099173
    B   0.006277   0.220092  -1.848998
    B  -1.455800   0.964383  -1.137540
    B  -1.454125  -0.765762  -1.330674
    B   1.493149   1.347506   0.576426
    B   2.366741  -0.059832   0.005722
    B   0.009882   1.808650  -0.342970
    B   1.458145  -0.746299  -1.297738
    B  -1.239803  -1.465070   0.311860
    B  -2.345929  -0.065183  -0.016397
    B  -1.460719   1.358221   0.548115
    B   1.455834  -0.130385   1.508093
    B   0.020589  -1.019743   1.699025
    B   0.016272   0.985775   1.612261
    B   1.231674  -1.456207   0.327580
    H  -2.075449  -1.360316  -2.141032
    H   0.025919   0.142686  -3.030151
    H   2.010859   1.646735  -1.904583
    H  -2.076988   1.621273  -1.899870
    H  -3.511166  -0.156910   0.122280
    H   0.013639  -2.429372  -1.420120
    H   2.034953  -1.368935  -2.120576
    H   3.541778  -0.156709   0.014833
    H   2.049041   2.303013   1.000721
    H   0.000801   2.957022  -0.626015
    H  -2.141352   2.184366   1.043856
    H  -1.693729  -2.519687   0.572740
    H  -0.115026  -1.736474   2.627156
    H  -0.086375   1.609473   2.607467
    H  -1.958182  -0.221779   2.239374
    H   2.126470  -0.313057   2.468031
    H   1.629757  -2.556564   0.497370
    C  -0.009614  -1.462735  -0.930486
    C  -1.326236  -0.133013   1.362819
