34
B15C2H17
    B   1.465556   0.994203  -1.133244
    B   0.012429   0.556455  -1.916372
    B  -1.463889   0.998930  -1.158307
    B  -1.219755  -0.762801  -1.315580
    B   1.489692   1.356896   0.587786
    B   2.347219  -0.041048  -0.037883
    B  -0.004138   1.824894  -0.447471
    B   1.224372  -0.768279  -1.295650
    B  -2.328813  -0.029626  -0.051466
    B  -1.479398   1.363246   0.571422
    B   1.493063  -0.123111   1.489488
    B   0.026673  -1.179034   1.462298
    B  -1.470230  -0.115366   1.473989
    B   0.007061   0.930136   1.555398
    B   1.451842  -1.482045   0.357992
    H  -1.703428  -1.463786  -2.129283
    H   0.003142   0.652811  -3.094749
    H   2.147396   1.558766  -1.921017
    H  -2.166739   1.561952  -1.926503
    H  -3.488505  -0.232857  -0.090986
    H  -0.061448  -2.724138  -0.737871
    H   1.613694  -1.434395  -2.189342
    H   3.522337  -0.124909  -0.108533
    H   2.066431   2.302266   1.000467
    H  -0.004898   2.993424  -0.633213
    H  -2.096049   2.278879   0.991589
    H  -1.919050  -2.244056   0.486273
    H  -0.070299  -2.049008   2.253250
    H  -0.022811   1.523041   2.579844
    H  -2.097373  -0.340687   2.446951
    H   2.056123  -0.243868   2.522746
    H   2.025241  -2.505355   0.496052
    C  -1.354796  -1.336355   0.326066
    C  -0.000235  -1.694423  -0.414734
