34
B15C2H17
    B   1.465832   0.994000  -1.133471
    B   0.012500   0.558697  -1.915787
    B  -1.464529   0.999327  -1.158669
    B  -1.218492  -0.762221  -1.315759
    B   1.490297   1.356772   0.587983
    B   2.346610  -0.041107  -0.037793
    B  -0.004022   1.825134  -0.447690
    B   1.221217  -0.768737  -1.295290
    B  -2.328532  -0.029958  -0.052303
    B  -1.480140   1.363642   0.571673
    B   1.492946  -0.123022   1.489758
    B   0.026279  -1.181317   1.459511
    B  -1.470817  -0.115088   1.474126
    B   0.006973   0.930946   1.553841
    B   1.453452  -1.482365   0.358264
    H  -1.700039  -1.465131  -2.129017
    H   0.003697   0.657643  -3.093963
    H   2.148539   1.557245  -1.921391
    H  -2.167214   1.561835  -1.927335
    H  -3.488160  -0.233556  -0.092587
    H  -0.061569  -2.725414  -0.733243
    H   1.609663  -1.434362  -2.189737
    H   3.521643  -0.125571  -0.109621
    H   2.067509   2.301954   1.000424
    H  -0.005188   2.993775  -0.632644
    H  -2.096557   2.279206   0.992240
    H  -1.920215  -2.244008   0.485968
    H  -0.069186  -2.051269   2.250647
    H  -0.022593   1.523922   2.578306
    H  -2.096854  -0.340452   2.447740
    H   2.055205  -0.242553   2.523543
    H   2.027601  -2.505272   0.495933
    C  -1.355508  -1.336297   0.326610
    C   0.000073  -1.695646  -0.410862
