34
B15C2H17
    B   1.467919   0.994513  -1.129417
    B   0.012673   0.517105  -1.910417
    B  -1.465762   0.999390  -1.152835
    B  -1.257303  -0.763420  -1.319690
    B   1.490803   1.357453   0.585968
    B   2.354305  -0.042072  -0.034154
    B  -0.003482   1.817206  -0.434851
    B   1.263531  -0.767483  -1.295166
    B  -2.334433  -0.028895  -0.046291
    B  -1.479741   1.364319   0.572700
    B   1.490720  -0.121972   1.487494
    B   0.029458  -1.155869   1.495668
    B  -1.464114  -0.118686   1.472423
    B   0.007682   0.930783   1.560375
    B   1.438569  -1.480156   0.356165
    H  -1.757462  -1.456336  -2.130498
    H   0.001275   0.585086  -3.091184
    H   2.134163   1.573609  -1.919937
    H  -2.155176   1.574726  -1.923980
    H  -3.495435  -0.225850  -0.071268
    H  -0.063893  -2.701858  -0.816093
    H   1.666087  -1.428565  -2.187045
    H   3.530413  -0.118559  -0.092958
    H   2.063994   2.305152   0.998325
    H  -0.003819   2.984065  -0.631237
    H  -2.095860   2.280031   0.993236
    H  -1.893112  -2.252007   0.486585
    H  -0.071208  -2.024452   2.287535
    H  -0.023180   1.528753   2.581553
    H  -2.098860  -0.349782   2.439660
    H   2.056459  -0.252078   2.518960
    H   2.000458  -2.508537   0.505037
    C  -1.342749  -1.336750   0.318886
    C  -0.002501  -1.678113  -0.474141
