34
B15C2H17
    B   1.468108   0.988852  -1.129429
    B   0.012304   0.413082  -1.899605
    B  -1.460554   0.981875  -1.133558
    B  -1.320129  -0.766710  -1.312873
    B   1.498938   1.356756   0.579923
    B   2.352679  -0.051756  -0.021486
    B   0.002454   1.799339  -0.403449
    B   1.350632  -0.774838  -1.301196
    B  -1.322950  -1.478069   0.353873
    B  -1.466837   1.355751   0.578307
    B   1.467023  -0.132366   1.495908
    B   0.011068  -1.088794   1.610063
    B  -1.461124  -0.138860   1.492355
    B   0.001960   0.953711   1.577556
    B   1.351715  -1.475742   0.340529
    H  -1.956100  -1.345078  -2.119204
    H  -0.009484   0.473406  -3.080882
    H   2.094598   1.614202  -1.915977
    H  -2.195774   1.559196  -1.853700
    H  -3.240346  -0.110158  -0.048412
    H  -0.017303  -2.621138  -1.115311
    H   1.852505  -1.386699  -2.178614
    H   3.530795  -0.115464  -0.048619
    H   2.078885   2.303713   0.984358
    H  -0.022300   2.963224  -0.618809
    H  -2.185944   2.214800   0.944740
    H  -1.960366  -2.459539   0.493748
    H  -0.011064  -1.901838   2.469102
    H  -0.023142   1.603019   2.567221
    H  -2.196150  -0.258696   2.407693
    H   2.091976  -0.267098   2.492640
    H   1.854994  -2.531936   0.505946
    C  -0.008233  -1.623612  -0.690644
    C  -2.162416  -0.051784  -0.022786
