34
B15C2H17
    B   1.466488   0.994237  -1.127875
    B   0.011339   0.213206  -1.827523
    B  -1.458816   0.986793  -1.132985
    B  -1.417472  -0.752076  -1.268510
    B   1.478818   1.375144   0.589640
    B   2.388687  -0.012016  -0.006255
    B  -0.001093   1.794211  -0.395441
    B   1.454163  -0.746331  -1.280833
    B  -2.366180  -0.000580  -0.006276
    B  -1.472768   1.379425   0.583787
    B   1.467265  -0.131153   1.487890
    B   0.010322  -1.167501   1.390712
    B  -1.454166  -0.122945   1.477672
    B   0.002997   0.940100   1.560490
    B   1.440334  -1.452749   0.334011
    H  -1.956169  -1.400982  -2.089044
    H  -0.017773   0.185544  -3.008407
    H   2.018851   1.646786  -1.942412
    H  -2.048381   1.612667  -1.940063
    H  -3.534031  -0.137032  -0.015902
    H  -0.054518  -2.545799  -1.032880
    H   1.927954  -1.370077  -2.162620
    H   3.565412  -0.071938  -0.018609
    H   2.043190   2.324382   1.006250
    H  -0.012846   2.946884  -0.658446
    H  -2.075280   2.303660   0.999609
    H  -1.850755  -2.276446   0.491434
    H  -0.061097  -2.019143   2.203502
    H  -0.023313   1.507577   2.597072
    H  -2.033606  -0.341132   2.478893
    H   2.002104  -0.283899   2.528928
    H   1.928570  -2.511421   0.512323
    C  -1.378540  -1.325815   0.321034
    C   0.010726  -1.540827  -0.649759
