34
B15C2H17
    B   1.466440   0.987480  -1.122750
    B   0.003983   0.391998  -1.896695
    B  -1.466973   0.986863  -1.139023
    B  -1.364588  -0.773156  -1.331725
    B   1.498096   1.357899   0.574058
    B   2.352651  -0.058270  -0.016615
    B   0.004713   1.798353  -0.407176
    B   1.361255  -0.771457  -1.299342
    B  -1.323208  -1.471366   0.306665
    B  -2.336820  -0.062564  -0.041499
    B  -1.465442   1.347449   0.562128
    B   1.478012  -0.124266   1.504221
    B   0.019060  -1.037545   1.638666
    B   0.017776   0.939990   1.588547
    B   1.325405  -1.469317   0.347855
    H  -1.921559  -1.376814  -2.180513
    H   0.004951   0.415231  -3.079397
    H   2.088642   1.620877  -1.906353
    H  -2.124105   1.622424  -1.890015
    H  -3.505679  -0.132453   0.081630
    H  -0.003528  -2.605536  -1.154832
    H   1.893412  -1.383423  -2.159176
    H   3.529906  -0.135217  -0.031961
    H   2.052507   2.310004   1.002775
    H  -0.017427   2.964227  -0.609165
    H  -2.109062   2.198564   1.062452
    H  -1.854732  -2.480384   0.601036
    H  -0.103128  -1.815244   2.517121
    H  -0.094283   1.541165   2.597956
    H  -1.969033  -0.236487   2.234415
    H   2.116949  -0.274903   2.490173
    H   1.802446  -2.532871   0.542862
    C  -0.004350  -1.605744  -0.736835
    C  -1.351867  -0.134756   1.349918
