34
B15C2H17
    B   1.462579   0.979099  -1.108385
    B   0.002936   0.256877  -1.868059
    B  -1.462674   0.973388  -1.135641
    B  -1.434101  -0.770186  -1.336665
    B   1.493273   1.351487   0.574142
    B   2.361645  -0.057126  -0.000154
    B   0.007917   1.802982  -0.360407
    B   1.434169  -0.760711  -1.304962
    B  -1.262735  -1.469538   0.309042
    B  -2.341736  -0.062840  -0.024635
    B  -1.462087   1.353168   0.551754
    B   1.464673  -0.126974   1.506414
    B   0.018183  -1.013756   1.686373
    B   0.017375   0.968338   1.602346
    B   1.258581  -1.466095   0.338301
    H  -2.035077  -1.365179  -2.161157
    H   0.015473   0.230750  -3.051079
    H   2.036527   1.645955  -1.901031
    H  -2.091015   1.634334  -1.888709
    H  -3.507441  -0.143426   0.117367
    H   0.012059  -2.496613  -1.345730
    H   2.001845  -1.376034  -2.138890
    H   3.537837  -0.141923   0.004758
    H   2.048898   2.306357   0.998373
    H  -0.004439   2.958226  -0.614484
    H  -2.126597   2.189260   1.051815
    H  -1.739158  -2.509959   0.586022
    H  -0.110385  -1.746179   2.602287
    H  -0.087700   1.581950   2.604005
    H  -1.971030  -0.224807   2.231126
    H   2.126501  -0.294026   2.475041
    H   1.678993  -2.555311   0.522128
    C  -0.004865  -1.518400  -0.879314
    C  -1.338005  -0.132335   1.357413
