34
B15C2H17
    B   1.470234   0.985611  -1.126116
    B   0.013052   0.399811  -1.890431
    B  -1.456327   0.984361  -1.134186
    B  -1.334300  -0.766811  -1.315139
    B   1.497223   1.353530   0.578585
    B   2.362114  -0.049112  -0.020313
    B   0.004121   1.800452  -0.396101
    B   1.368401  -0.773185  -1.301417
    B  -1.336539  -1.480166   0.355075
    B  -1.467573   1.356071   0.578450
    B   1.469121  -0.132439   1.491294
    B   0.011851  -1.091704   1.594699
    B  -1.456892  -0.137778   1.494677
    B   0.003570   0.959764   1.573674
    B   1.368857  -1.474887   0.341598
    H  -1.968390  -1.355193  -2.115159
    H  -0.003676   0.451859  -3.072674
    H   2.085889   1.620925  -1.913407
    H  -2.198264   1.560579  -1.848403
    H  -3.247039  -0.092698  -0.040681
    H  -0.010012  -2.606474  -1.109990
    H   1.852842  -1.395196  -2.180914
    H   3.540784  -0.101058  -0.042307
    H   2.075464   2.301903   0.983346
    H  -0.015289   2.961989  -0.622905
    H  -2.194891   2.209584   0.942267
    H  -1.972007  -2.464031   0.483479
    H  -0.005301  -1.910539   2.448989
    H  -0.016156   1.599617   2.569251
    H  -2.198941  -0.253609   2.404939
    H   2.083551  -0.260151   2.495600
    H   1.854428  -2.539758   0.501215
    C  -0.011323  -1.609319  -0.685107
    C  -2.168163  -0.051197  -0.022481
