34
B15C2H17
    B   1.473921   0.979929  -1.121353
    B   0.000514   0.161960  -1.807060
    B  -1.473157   0.979434  -1.122118
    B  -1.472478  -0.764913  -1.278587
    B   1.472751   1.369970   0.584992
    B  -0.000128   1.769460  -0.403739
    B   1.474401  -0.763964  -1.278058
    B   0.000978  -1.669631  -0.711622
    B  -1.473686  -1.452306   0.331555
    B  -1.474224   1.369639   0.584115
    B   1.471571  -0.132419   1.484528
    B  -0.000298  -1.196089   1.365092
    B  -1.473429  -0.132909   1.483234
    B  -0.001171   0.933397   1.556203
    B   1.474234  -1.451761   0.332534
    H  -2.048639  -1.296196  -2.168480
    H   0.000722   0.267800  -2.991256
    H   2.050167   1.661682  -1.901894
    H  -2.049386   1.660544  -1.903259
    H  -3.478518  -0.000961  -0.001669
    H   0.001125  -2.763016  -1.178677
    H   2.051216  -1.295625  -2.167319
    H   3.478620   0.001055   0.002504
    H   2.049706   2.322793   0.991690
    H  -0.000307   2.928313  -0.669357
    H  -2.050996   2.322531   0.990759
    H  -2.050575  -2.462121   0.563065
    H  -0.000112  -1.978466   2.260228
    H  -0.001690   1.544667   2.575979
    H  -2.049028  -0.225832   2.515830
    H   2.046870  -0.224587   2.517306
    H   2.051337  -2.461488   0.563847
    C  -2.363830  -0.000517  -0.000711
    C   2.363936   0.000378   0.001106
