34
B15C2H17
    B   1.415737   1.026432  -1.170456
    B   0.000691   0.543444  -2.014428
    B  -1.415260   1.025774  -1.171591
    B  -1.169094  -0.754909  -1.301566
    B   1.186710   1.388524   0.575750
    B   2.264776   0.019715  -0.023950
    B  -0.000114   1.923735  -0.803053
    B   1.170492  -0.754369  -1.300631
    B  -1.500492  -1.477528   0.324693
    B  -2.264737   0.018660  -0.025771
    B  -1.187783   1.387979   0.574782
    B   1.503000  -0.128539   1.506952
    B  -0.000277  -1.237133   1.421665
    B  -1.504115  -0.129240   1.505737
    B   1.500945  -1.476824   0.325903
    H  -1.609973  -1.421334  -2.170321
    H   0.001159   0.617146  -3.192988
    H   2.244268   1.584307  -1.808828
    H  -2.243518   1.583295  -1.810626
    H  -3.444217   0.034582  -0.050477
    H   0.000893  -2.748520  -0.589331
    H   1.612390  -1.420597  -2.169020
    H   3.444266   0.036195  -0.047737
    H   1.619509   2.342366   1.119647
    H  -0.000284   3.083265  -1.026985
    H  -1.621485   2.341601   1.118346
    H  -2.136177  -2.462603   0.451617
    H  -0.000448  -2.013363   2.309463
    H  -0.001269   0.957601   2.636672
    H  -2.131445  -0.126984   2.504164
    H   2.129518  -0.125998   2.505888
    H   2.136993  -2.461603   0.453300
    C  -0.000767   0.531301   1.641463
    C   0.000528  -1.705625  -0.298877
