34
B15C2H17
    B   1.473374   0.990474  -1.120792
    B   0.012448   0.351000  -1.856680
    B  -1.470055   0.995598  -1.139653
    B  -1.394001  -0.752451  -1.318358
    B   1.491659   1.363462   0.583785
    B   2.385793  -0.031708  -0.014796
    B  -0.000694   1.798786  -0.391620
    B   1.413409  -0.753009  -1.289995
    B  -2.366228  -0.009439  -0.024817
    B  -1.484632   1.377403   0.576460
    B   1.482652  -0.124208   1.487860
    B   0.031046  -1.135806   1.497627
    B  -1.460244  -0.112999   1.482158
    B   0.007821   0.953570   1.563215
    B   1.435907  -1.470473   0.347292
    H  -1.922948  -1.455455  -2.101469
    H  -0.007326   0.310166  -3.040595
    H   2.060295   1.630828  -1.926297
    H  -2.087371   1.617616  -1.934929
    H  -3.523975  -0.228623  -0.022955
    H  -0.062531  -2.569156  -0.996610
    H   1.817319  -1.426109  -2.172305
    H   3.565020  -0.089244  -0.036376
    H   2.061799   2.314410   0.994700
    H  -0.000992   2.955161  -0.643173
    H  -2.090950   2.302720   0.992015
    H  -1.809476  -2.261246   0.473997
    H  -0.080413  -2.009980   2.282568
    H  -0.017514   1.547377   2.587011
    H  -2.081965  -0.391047   2.445844
    H   2.029534  -0.277628   2.527343
    H   1.914609  -2.540303   0.494714
    C  -1.320529  -1.310553   0.306912
    C  -0.000423  -1.558380  -0.612675
