34
B15C2H17
    B   1.469328   0.984758  -1.122015
    B   0.003129   0.193458  -1.816562
    B  -1.454370   0.974071  -1.117806
    B  -1.444413  -0.761353  -1.280299
    B   1.479483   1.374056   0.586774
    B   2.389767  -0.008643  -0.002691
    B   0.003484   1.759670  -0.389753
    B   1.446714  -0.759313  -1.281436
    B  -1.445837  -1.451535   0.335280
    B  -2.371559  -0.015329  -0.006918
    B   1.467379  -0.129160   1.488248
    B   0.002037  -1.181661   1.394224
    B  -1.455066  -0.133207   1.476499
    B   0.002618   0.937460   1.539813
    B   1.446603  -1.451359   0.338161
    H  -1.993445  -1.315195  -2.165206
    H  -0.014258   0.281706  -2.995755
    H   2.013288   1.668723  -1.917432
    H  -2.034567   1.672177  -1.869475
    H  -3.548790   0.004105   0.000457
    H  -0.009658  -2.579282  -1.100140
    H   1.970844  -1.329639  -2.173211
    H   3.569430  -0.032536  -0.011886
    H   2.037303   2.332763   0.996053
    H  -0.046171   2.915939  -0.630734
    H  -1.943951   2.148156   0.916527
    H  -1.995942  -2.473297   0.546648
    H  -0.015517  -1.972728   2.273155
    H  -0.047348   1.564495   2.540740
    H  -2.034619  -0.192841   2.500971
    H   2.010359  -0.230332   2.532917
    H   1.971349  -2.489601   0.543121
    C  -1.424269   1.292428   0.551320
    C  -0.002917  -1.596201  -0.680182
