34
B15C2H17
    B   1.469778   0.981993  -1.126114
    B   0.000539   0.168411  -1.818478
    B  -1.469007   0.981483  -1.126900
    B  -1.456216  -0.767859  -1.286782
    B   1.468702   1.374089   0.588286
    B   2.386697  -0.007925   0.002998
    B  -0.000140   1.775120  -0.405047
    B   1.458181  -0.766894  -1.286294
    B  -1.450224  -1.456738   0.332600
    B  -2.386592  -0.008835   0.001162
    B  -1.470198   1.373762   0.587397
    B   1.455427  -0.131572   1.493254
    B  -1.457321  -0.132001   1.492029
    B  -0.001177   0.944416   1.563872
    B   1.450753  -1.456233   0.333489
    H  -2.010217  -1.324734  -2.175748
    H   0.000746   0.258314  -3.004177
    H   2.038799   1.660496  -1.916058
    H  -2.037998   1.659329  -1.917457
    H  -3.571493  -0.029368   0.004636
    H   0.001101  -2.677812  -1.149214
    H   2.012848  -1.324118  -2.174649
    H   3.571602  -0.027267   0.008981
    H   2.038518   2.328045   1.004864
    H  -0.000323   2.934283  -0.670782
    H  -2.039828   2.327801   1.003899
    H  -1.995619  -2.482859   0.567692
    H  -0.000118  -1.914747   2.196891
    H  -0.001678   1.541937   2.591979
    H  -2.010813  -0.248418   2.534844
    H   2.008652  -0.247286   2.536236
    H   1.996367  -2.482281   0.568357
    C   0.000969  -1.647459  -0.716012
    C  -0.000296  -1.174324   1.359653
