34
B15C2H17
    B   1.465395   0.998747  -1.127310
    B   0.015528   0.491718  -1.912693
    B  -1.462372   1.005772  -1.151396
    B  -1.262717  -0.765413  -1.308836
    B   1.489342   1.359717   0.586884
    B   2.354691  -0.039549  -0.030753
    B  -0.003199   1.823329  -0.427330
    B   1.274570  -0.764049  -1.294892
    B  -2.337757  -0.024372  -0.044018
    B  -1.475640   1.372816   0.575518
    B   1.489860  -0.116629   1.489192
    B   0.030403  -1.160986   1.484257
    B  -1.463624  -0.119338   1.472725
    B   0.008315   0.932015   1.562130
    B   1.438891  -1.476681   0.356648
    H  -1.766934  -1.458490  -2.117609
    H  -0.002603   0.541136  -3.094263
    H   2.125498   1.575061  -1.925159
    H  -2.149997   1.575160  -1.928455
    H  -3.499158  -0.218081  -0.074385
    H  -0.072448  -2.692059  -0.826724
    H   1.681802  -1.423950  -2.185896
    H   3.530317  -0.126140  -0.088460
    H   2.060593   2.309606   0.997199
    H  -0.003150   2.989975  -0.626740
    H  -2.096339   2.285278   0.996227
    H  -1.889415  -2.252056   0.480456
    H  -0.066146  -2.040238   2.264606
    H  -0.026496   1.523105   2.587463
    H  -2.090995  -0.354696   2.443737
    H   2.051771  -0.251959   2.521814
    H   2.006366  -2.501635   0.509200
    C  -1.354382  -1.327117   0.319825
    C   0.000448  -1.669245  -0.483554
