34
B15C2H17
    B   1.464738   0.974886  -1.122048
    B   0.017369   0.095103  -1.798124
    B  -1.448241   1.002243  -1.111529
    B   1.483064   1.374715   0.587284
    B   2.419288   0.003430   0.002762
    B   0.005394   1.795139  -0.355644
    B   1.517586  -0.767951  -1.282026
    B   0.047272  -1.671922  -0.713929
    B  -2.396049   0.051752   0.021959
    B  -1.485062   1.402300   0.598187
    B   1.461946  -0.136357   1.481332
    B   0.016464  -1.236530   1.311672
    B  -1.447221  -0.109343   1.492216
    B   0.004761   0.988549   1.541288
    B   1.516842  -1.457671   0.332660
    H  -1.940309  -1.216490  -1.888281
    H  -0.101760   0.117673  -2.973179
    H   1.946100   1.657258  -1.959674
    H  -2.048386   1.542555  -1.969575
    H  -3.550481  -0.153964  -0.066175
    H  -0.145744  -2.741231  -1.171146
    H   2.025612  -1.327132  -2.192770
    H   3.600089   0.003642   0.003560
    H   2.040914   2.333938   0.997250
    H  -0.018664   2.941581  -0.651979
    H  -2.097754   2.331070   0.994747
    H  -1.941655  -2.204618   0.426952
    H  -0.103465  -2.070110   2.140015
    H  -0.019617   1.568468   2.573665
    H  -2.047310  -0.355291   2.475994
    H   1.942226  -0.269184   2.554043
    H   2.025321  -2.502002   0.558722
    C  -1.371338  -0.669187  -1.151625
    C  -1.371509  -1.294564   0.312803
