34
B15C2H17
    B   1.462934   0.976801  -1.117537
    B   0.000667   0.162260  -1.807577
    B  -1.462329   0.976167  -1.118609
    B  -1.461819  -0.762404  -1.275137
    B   1.461978   1.365657   0.583206
    B  -0.000232   1.769565  -0.403642
    B   1.463394  -0.761587  -1.274131
    B   0.000724  -1.670646  -0.712652
    B  -1.463044  -1.447969   0.330572
    B  -1.463223   1.365084   0.582121
    B   1.460984  -0.131693   1.479574
    B  -0.000270  -1.196074   1.366153
    B  -1.462328  -0.132343   1.478381
    B  -0.000816   0.933756   1.556308
    B   1.463455  -1.447272   0.331659
    H  -2.088718  -1.272764  -2.130316
    H   0.001108   0.268101  -2.984708
    H   2.089854   1.631743  -1.867734
    H  -2.089124   1.630535  -1.869413
    H  -3.317043  -0.000971  -0.001150
    H   0.000997  -2.757602  -1.176720
    H   2.091002  -1.272083  -2.128682
    H   3.317023   0.000785   0.002155
    H   2.089019   2.281400   0.974411
    H  -0.000434   2.921646  -0.667253
    H  -2.090622   2.280728   0.972990
    H  -2.090498  -2.418361   0.552951
    H  -0.000374  -1.973394   2.256476
    H  -0.001260   1.541370   2.570125
    H  -2.088601  -0.221432   2.470682
    H   2.086917  -0.220230   2.472169
    H   2.091118  -2.417480   0.554275
    C  -2.243425  -0.000760  -0.000662
    C   2.243407   0.000218   0.001124
