34
B15C2H17
    B   1.461281   0.983691  -1.125515
    B   0.000693   0.163417  -1.821441
    B  -1.460788   0.983026  -1.126655
    B  -1.460163  -0.767758  -1.283626
    B   1.460736   1.375348   0.587443
    B  -0.000232   1.783246  -0.406684
    B   1.461576  -0.767078  -1.282481
    B   0.000685  -1.682873  -0.717450
    B  -1.461026  -1.457871   0.332681
    B  -1.461831   1.374684   0.586294
    B   1.459299  -0.132861   1.489053
    B  -0.000253  -1.203088   1.376726
    B  -1.460412  -0.133518   1.487887
    B  -0.000824   0.939350   1.568300
    B   1.461453  -1.457199   0.333831
    H  -2.124431  -1.267172  -2.120106
    H   0.001134   0.269339  -3.001600
    H   2.126074   1.623782  -1.859465
    H  -2.125320   1.622763  -1.861151
    H  -3.299950  -0.000875  -0.000998
    H   0.001118  -2.772838  -1.182201
    H   2.126691  -1.266261  -2.118425
    H   3.299973   0.000643   0.001646
    H   2.125507   2.270704   0.970452
    H  -0.000391   2.938459  -0.670358
    H  -2.127285   2.269757   0.968776
    H  -2.126041  -2.406979   0.549970
    H  -0.000448  -1.982020   2.269697
    H  -0.001375   1.547609   2.585244
    H  -2.124666  -0.220750   2.458209
    H   2.122885  -0.219762   2.459861
    H   2.126726  -2.406006   0.551643
    C  -2.219130  -0.000583  -0.000950
    C   2.219153   0.000428   0.000799
