34
B15C2H17
    B   1.473953   0.982956  -1.123659
    B   0.000894   0.171760  -1.811216
    B  -1.467929   0.978520  -1.121913
    B  -1.465537  -0.762868  -1.280180
    B   1.476446   1.373002   0.586290
    B   2.398487  -0.002649  -0.000218
    B   0.000710   1.765010  -0.399948
    B   1.466287  -0.762879  -1.281347
    B  -1.466837  -1.452199   0.334222
    B  -2.391455  -0.005235  -0.002743
    B   1.471623  -0.131836   1.488131
    B   0.000000  -1.192303   1.374995
    B  -1.468333  -0.133302   1.482365
    B  -0.000373   0.933091   1.550411
    B   1.466126  -1.453500   0.335559
    H  -2.026422  -1.303589  -2.173230
    H  -0.006202   0.273062  -2.994852
    H   2.031161   1.669860  -1.914719
    H  -2.037310   1.669361  -1.897669
    H  -3.575167   0.000238  -0.001271
    H  -0.005688  -2.666379  -1.137299
    H   2.017353  -1.311129  -2.177644
    H   3.583812  -0.010864  -0.002558
    H   2.039172   2.334453   0.996729
    H  -0.018041   2.924096  -0.658229
    H  -1.990807   2.236253   0.954057
    H  -2.028563  -2.470798   0.561032
    H  -0.007088  -1.977441   2.266470
    H  -0.019463   1.549627   2.565354
    H  -2.037007  -0.215617   2.518294
    H   2.027798  -0.228051   2.531913
    H   2.017593  -2.479751   0.559697
    C  -1.457419   1.340376   0.571674
    C  -0.001354  -1.640520  -0.699092
