34
B15C2H17
    B   1.494156   0.981854  -1.110291
    B   0.000731   0.179916  -1.879720
    B  -1.493661   0.981172  -1.111494
    B  -1.453303  -0.765038  -1.334386
    B   1.493435   1.367156   0.574379
    B   2.304498  -0.080044   0.019335
    B  -0.000225   1.758626  -0.402056
    B   1.454767  -0.764367  -1.333230
    B  -1.068535  -1.477658   0.337412
    B  -2.304455  -0.081088   0.017490
    B  -1.494531   1.366474   0.573178
    B   1.453472  -0.108561   1.534153
    B  -1.454657  -0.109237   1.532987
    B  -0.000873   0.979167   1.614523
    B   1.068966  -1.477173   0.338288
    H  -2.108584  -1.384046  -2.097637
    H   0.001210   0.187191  -3.062933
    H   2.099110   1.649586  -1.875260
    H  -2.098323   1.648591  -1.876968
    H  -3.472585  -0.246524   0.054780
    H   0.001217  -2.408659  -1.598577
    H   2.110928  -1.383122  -2.095931
    H   3.472675  -0.244909   0.057620
    H   2.097975   2.301070   0.973562
    H  -0.000385   2.913275  -0.666066
    H  -2.099790   2.300128   0.971875
    H  -1.456565  -2.562441   0.585391
    H  -0.000668  -1.474109   2.486560
    H  -0.001401   1.500037   2.676944
    H  -2.110673  -0.335153   2.488875
    H   2.108844  -0.334178   2.490555
    H   1.457306  -2.561781   0.586543
    C   0.000785  -1.463645  -1.072726
    C  -0.000439  -0.851759   1.602234
