34
B15C2H17
    B   1.462666   0.980345  -1.121864
    B   0.000700   0.162644  -1.815072
    B  -1.462116   0.979682  -1.122989
    B  -1.461590  -0.765128  -1.279329
    B   1.462072   1.370908   0.585529
    B  -0.000236   1.777424  -0.405646
    B   1.463068  -0.764396  -1.278216
    B   0.000690  -1.676954  -0.714817
    B  -1.462515  -1.452739   0.331492
    B  -1.463239   1.370260   0.584397
    B   1.460622  -0.132471   1.484418
    B  -0.000258  -1.199961   1.371329
    B  -1.461815  -0.133131   1.483248
    B  -0.000801   0.936885   1.563085
    B   1.462927  -1.452042   0.332617
    H  -2.112502  -1.269073  -2.123099
    H   0.001166   0.267994  -2.994668
    H   2.113928   1.626171  -1.862399
    H  -2.113190   1.625029  -1.864112
    H  -3.301112  -0.000690  -0.001038
    H   0.001056  -2.766311  -1.179301
    H   2.114747  -1.268317  -2.121403
    H   3.301107   0.000916   0.001837
    H   2.113350   2.274309   0.971936
    H  -0.000416   2.931971  -0.669503
    H  -2.115085   2.273446   0.970338
    H  -2.113816  -2.410469   0.550791
    H  -0.000448  -1.979090   2.263321
    H  -0.001310   1.544634   2.579582
    H  -2.112215  -0.221378   2.462443
    H   2.110530  -0.220285   2.463982
    H   2.114457  -2.409520   0.552341
    C  -2.221194  -0.000453  -0.000784
    C   2.221189   0.000541   0.000962
