34
B15C2H17
    B   1.462514   0.987216  -1.129510
    B   0.000680   0.358125  -1.896070
    B  -1.462079   0.986547  -1.130703
    B  -1.389558  -0.762381  -1.288570
    B   1.392009   1.379336   0.581814
    B   2.325386  -0.018662   0.022801
    B  -0.000176   1.832779  -0.606006
    B   1.390911  -0.761759  -1.287410
    B  -1.368934  -1.469743   0.341180
    B  -2.325356  -0.019750   0.020912
    B  -1.393018   1.378674   0.580679
    B   1.365981  -0.140220   1.502309
    B  -0.000276  -1.314323   1.498763
    B  -1.367037  -0.140854   1.501180
    B   1.369384  -1.469100   0.342307
    H  -1.922823  -1.378480  -2.142779
    H   0.001160   0.365783  -3.077962
    H   2.139918   1.624399  -1.862525
    H  -2.139119   1.623526  -1.864229
    H  -3.504373  -0.037893   0.041330
    H   0.001066  -2.588131  -1.129780
    H   1.925209  -1.377488  -2.141242
    H   3.504396  -0.036363   0.043945
    H   1.928506   2.307154   1.076865
    H  -0.000375   3.003103  -0.770698
    H  -1.930428   2.306198   1.075295
    H  -1.921360  -2.500369   0.514102
    H  -0.000477  -2.093503   2.385888
    H  -0.001290   1.478689   2.403600
    H  -1.915793  -0.171436   2.547640
    H   1.913737  -0.170616   2.549297
    H   1.922164  -2.499455   0.515714
    C  -0.000786   0.914059   1.478880
    C   0.000654  -1.594309  -0.697606
