34
B15C2H17
    B   1.481618   0.979156  -1.119577
    B   0.000523   0.161488  -1.802039
    B  -1.475577   0.976752  -1.119248
    B  -1.480137  -0.764535  -1.276555
    B   1.479781   1.370333   0.587120
    B   2.403012   0.001452   0.001590
    B   0.002507   1.762388  -0.399213
    B   1.476788  -0.761892  -1.274630
    B  -0.001636  -1.663356  -0.705843
    B  -1.480626  -1.452970   0.333541
    B  -2.402920  -0.001708  -0.000494
    B   1.475737  -0.131211   1.478907
    B  -0.001096  -1.188913   1.357013
    B  -1.477575  -0.133098   1.477507
    B  -0.000377   0.927911   1.546999
    H  -2.044985  -1.299241  -2.172282
    H   0.000717   0.267260  -2.985452
    H   2.046654   1.665262  -1.905231
    H  -2.042031   1.673642  -1.893200
    H  -3.587456   0.011575   0.006464
    H   0.011526  -2.758798  -1.164874
    H   2.043709  -1.310393  -2.159675
    H   3.587534  -0.012894   0.008476
    H   2.046210   2.326813   1.002589
    H  -0.010701   2.921895  -0.656489
    H  -1.989734   2.241616   0.959801
    H  -2.046934  -2.467982   0.572919
    H   0.010060  -1.968442   2.252347
    H  -0.011851   1.536244   2.566467
    H  -2.039416  -0.213335   2.518130
    H   2.037286  -0.237355   2.517310
    H   1.989907  -2.376369   0.547515
    C   1.461419  -1.421830   0.326532
    C  -1.461513   1.341287   0.572980
