34
B15C2H17
    B   1.477884   0.990615  -1.126772
    B   0.000698   0.161867  -1.805771
    B  -1.461735   0.959472  -1.127302
    B  -1.476874  -0.774457  -1.286005
    B   1.501550   1.397352   0.590114
    B   2.395604   0.022583  -0.001039
    B   0.014279   1.777175  -0.365437
    B   1.462631  -0.743896  -1.278793
    B  -0.013852  -1.683985  -0.675371
    B  -1.501860  -1.479863   0.331259
    B  -2.395566  -0.021874  -0.006841
    B   1.445065  -0.110456   1.473572
    B  -0.007023  -1.253344   1.307721
    B  -1.446158  -0.153055   1.468663
    B   0.005977   1.000995   1.509628
    H  -2.011541  -1.310713  -2.192746
    H   0.001139   0.267510  -2.984937
    H   2.013237   1.679432  -1.923356
    H  -2.045329   1.719440  -1.813744
    H  -3.564150   0.110187   0.059607
    H   0.084847  -2.781434  -1.100078
    H   2.046745  -1.369854  -2.088929
    H   3.564144  -0.119277   0.041779
    H   2.080624   2.334212   1.017962
    H  -0.084167   2.932643  -0.588412
    H  -1.926333   2.091257   0.904033
    H  -2.081220  -2.477799   0.585332
    H   0.074765  -2.038293   2.185907
    H  -0.076530   1.617429   2.513246
    H  -1.982207  -0.136835   2.517999
    H   1.980329  -0.312930   2.503725
    H   1.925756  -2.218586   0.519398
    C   1.382365  -1.308744   0.304143
    C  -1.382671   1.233976   0.530853
