34
B15C2H17
    B   1.406731   1.024055  -1.164818
    B   0.000679   0.530890  -2.003793
    B  -1.406208   1.023385  -1.165922
    B  -1.179791  -0.752251  -1.306668
    B   1.225769   1.384094   0.575723
    B   2.278165   0.024432  -0.023365
    B  -0.000128   1.912085  -0.774890
    B   1.181447  -0.751663  -1.305753
    B  -1.501013  -1.478541   0.334280
    B  -2.278154   0.023411  -0.025148
    B  -1.226932   1.383520   0.574801
    B   1.492615  -0.126953   1.503134
    B  -0.000228  -1.244492   1.399574
    B  -1.493797  -0.127573   1.501959
    B   1.501436  -1.477870   0.335432
    H  -1.610987  -1.421425  -2.177540
    H   0.001078   0.618409  -3.181767
    H   2.224419   1.586213  -1.811638
    H  -2.223731   1.584973  -1.813447
    H  -3.457367   0.019293  -0.050631
    H   0.000888  -2.750492  -0.608104
    H   1.613444  -1.420626  -2.176387
    H   3.457403   0.020818  -0.047797
    H   1.665322   2.336452   1.116056
    H  -0.000369   3.075343  -0.983145
    H  -1.667163   2.335797   1.114728
    H  -2.121709  -2.471927   0.461706
    H  -0.000489  -1.994612   2.310660
    H  -0.001195   0.990897   2.611054
    H  -2.101906  -0.124193   2.511932
    H   2.099940  -0.123188   2.513582
    H   2.122458  -2.470955   0.463609
    C  -0.000745   0.572716   1.614069
    C   0.000537  -1.709267  -0.322081
