34
B15C2H17
    B   1.471581   0.988694  -1.123833
    B   0.015136   0.369147  -1.884712
    B  -1.453378   0.990707  -1.133911
    B  -1.352366  -0.765546  -1.313371
    B   1.495621   1.356530   0.579902
    B   2.368214  -0.043409  -0.017910
    B   0.006379   1.808399  -0.388357
    B   1.388056  -0.768588  -1.298439
    B  -1.354409  -1.478110   0.354805
    B  -1.466294   1.363729   0.581772
    B   1.470366  -0.128785   1.491788
    B   0.014015  -1.108340   1.569416
    B  -1.453813  -0.133266   1.498895
    B   0.005830   0.970740   1.573747
    B   1.388404  -1.469548   0.343030
    H  -1.983988  -1.364222  -2.107582
    H  -0.004094   0.401210  -3.068248
    H   2.075905   1.627263  -1.917778
    H  -2.197073   1.562776  -1.850268
    H  -3.247454  -0.084022  -0.036802
    H  -0.005950  -2.585248  -1.101161
    H   1.861171  -1.402797  -2.175792
    H   3.547520  -0.099402  -0.041607
    H   2.075116   2.304930   0.984879
    H  -0.014430   2.967893  -0.626764
    H  -2.203612   2.210635   0.942677
    H  -1.987171  -2.465064   0.471516
    H  -0.005717  -1.942307   2.409697
    H  -0.015323   1.600798   2.575934
    H  -2.197849  -0.253287   2.407519
    H   2.073799  -0.259165   2.502850
    H   1.862271  -2.541517   0.492072
    C  -0.009203  -1.585607  -0.674958
    C  -2.166843  -0.044470  -0.019598
