34
B15C2H17
    B   1.491905   0.971263  -1.108626
    B   0.000694   0.239800  -1.879125
    B  -1.491456   0.970582  -1.109828
    B  -1.436135  -0.774400  -1.325462
    B   1.491325   1.356829   0.577550
    B   2.306407  -0.089093   0.021390
    B  -0.000226   1.765682  -0.403555
    B   1.437566  -0.773730  -1.324278
    B  -1.097343  -1.492381   0.340781
    B  -2.306332  -0.090176   0.019481
    B  -1.492333   1.356149   0.576350
    B   1.436383  -0.121018   1.530221
    B  -1.437506  -0.121704   1.529008
    B  -0.000897   1.032793   1.587820
    B   1.097765  -1.491887   0.341694
    H  -2.111558  -1.372129  -2.089382
    H   0.001169   0.260040  -3.061587
    H   2.112068   1.636085  -1.864553
    H  -2.111266   1.635203  -1.866221
    H  -3.479493  -0.209987   0.046355
    H   0.001178  -2.453243  -1.572497
    H   2.113949  -1.371063  -2.087658
    H   3.479594  -0.208434   0.049134
    H   2.110854   2.284436   0.969644
    H  -0.000391   2.919232  -0.667249
    H  -2.112631   2.283429   0.968000
    H  -1.489407  -2.575633   0.588462
    H  -0.000584  -1.525672   2.482349
    H  -0.001470   1.565191   2.643841
    H  -2.113613  -0.327959   2.476308
    H   2.111754  -0.326944   2.478113
    H   1.490100  -2.574985   0.589616
    C   0.000781  -1.494337  -1.068642
    C  -0.000433  -0.881187   1.611950
