34
B15C2H17
    B   1.486889   0.985740  -1.116798
    B   0.000104   0.186625  -1.857586
    B  -1.487504   0.983256  -1.125596
    B  -1.463916  -0.764531  -1.346644
    B   1.504801   1.363902   0.568812
    B   2.342477  -0.062645   0.007734
    B   0.005319   1.761188  -0.376850
    B   1.459355  -0.766864  -1.310241
    B  -1.187128  -1.463854   0.297649
    B  -2.326377  -0.077146  -0.015635
    B  -1.477837   1.349716   0.560024
    B   1.469716  -0.124273   1.515792
    B   0.011086  -0.957232   1.745782
    B   0.015438   0.955997   1.604236
    B   1.191836  -1.469681   0.347950
    H  -2.070124  -1.363990  -2.162446
    H   0.006182   0.193612  -3.040445
    H   2.058554   1.664832  -1.897289
    H  -2.091507   1.670044  -1.872806
    H  -3.489716  -0.185040   0.133382
    H  -0.001305  -2.423379  -1.459208
    H   2.054048  -1.376020  -2.128588
    H   3.517092  -0.176450   0.021106
    H   2.066912   2.315354   0.988506
    H  -0.017886   2.919269  -0.622763
    H  -2.117099   2.206917   1.055363
    H  -1.633316  -2.514394   0.584792
    H  -0.101376  -1.671048   2.677500
    H  -0.095122   1.580030   2.599635
    H  -2.005663  -0.261741   2.218634
    H   2.146314  -0.310620   2.469920
    H   1.582944  -2.568606   0.530254
    C  -0.002107  -1.462336  -0.960155
    C  -1.350666  -0.135877   1.365386
