34
B15C2H17
    B   1.468326   0.985921  -1.122825
    B   0.004067   0.371401  -1.878110
    B  -1.470603   0.990886  -1.142483
    B  -1.383757  -0.767718  -1.328628
    B   1.501040   1.358622   0.573631
    B   2.373780  -0.045760  -0.019341
    B   0.005631   1.794531  -0.394754
    B   1.377377  -0.772069  -1.293321
    B  -1.379520  -1.470363   0.304743
    B  -2.362441  -0.045817  -0.051442
    B  -1.474780   1.357219   0.560199
    B   1.505724  -0.124755   1.503446
    B   0.019554  -1.051707   1.559950
    B   0.020388   0.925919   1.577438
    B   1.396959  -1.466546   0.351690
    H  -1.880255  -1.404801  -2.189636
    H   0.007989   0.389727  -3.061541
    H   2.070483   1.629404  -1.914172
    H  -2.098630   1.640505  -1.906868
    H  -3.528487  -0.111492   0.102011
    H  -0.000103  -2.582788  -1.067404
    H   1.850445  -1.409339  -2.168440
    H   3.552926  -0.103042  -0.042481
    H   2.036417   2.321636   1.003736
    H  -0.012500   2.958406  -0.609598
    H  -2.107477   2.204922   1.080416
    H  -1.903543  -2.482865   0.598539
    H  -0.104176  -1.856500   2.414485
    H  -0.096295   1.504412   2.599492
    H  -1.962490  -0.225787   2.236643
    H   2.107234  -0.257235   2.514398
    H   1.837680  -2.547441   0.532748
    C  -0.004675  -1.575956  -0.659695
    C  -1.365868  -0.130778   1.336582
