34
B15C2H17
    B   1.480197   0.985016  -1.119553
    B   0.011634   0.354001  -1.863885
    B  -1.459253   0.965814  -1.135916
    B  -1.386579  -0.783251  -1.311496
    B   1.523930   1.367359   0.584570
    B   2.377002  -0.044058  -0.018166
    B   0.016149   1.787690  -0.355465
    B   1.388279  -0.763441  -1.298450
    B  -1.388688  -1.488684   0.340857
    B  -2.361412  -0.073447  -0.032228
    B   1.478905  -0.128055   1.486099
    B   0.010304  -1.103663   1.543679
    B  -1.461119  -0.151801   1.482593
    B   0.015057   0.979462   1.536182
    B   1.388438  -1.466078   0.346142
    H  -1.892984  -1.388652  -2.188791
    H  -0.009977   0.406700  -3.045696
    H   2.037718   1.659231  -1.917262
    H  -2.112075   1.687197  -1.802672
    H  -3.533574   0.027705   0.010436
    H   0.005839  -2.573723  -1.096061
    H   1.866627  -1.388220  -2.179312
    H   3.556276  -0.097132  -0.040286
    H   2.101872   2.315931   0.989401
    H  -0.094073   2.945281  -0.558088
    H  -1.953133   2.062204   0.879556
    H  -1.895982  -2.540659   0.510073
    H  -0.011503  -1.921141   2.398649
    H  -0.094696   1.634172   2.512199
    H  -2.113272  -0.133082   2.465151
    H   2.035882  -0.236399   2.525243
    H   1.867705  -2.533987   0.504583
    C  -1.386633   1.213604   0.517684
    C  -0.006445  -1.575141  -0.670365
