34
B15C2H17
    B   1.414818   1.027748  -1.172957
    B   0.000693   0.540531  -2.013762
    B  -1.414336   1.027096  -1.174092
    B  -1.174020  -0.753246  -1.302019
    B   1.176976   1.389642   0.573908
    B   2.263029   0.022528  -0.024696
    B  -0.000115   1.923577  -0.804515
    B   1.175398  -0.752705  -1.301076
    B  -1.501185  -1.477332   0.324758
    B  -2.262989   0.021473  -0.026520
    B  -1.178039   1.389094   0.572961
    B   1.501393  -0.126944   1.507240
    B  -0.000273  -1.240865   1.419347
    B  -1.502513  -0.127655   1.506028
    B   1.501637  -1.476631   0.325977
    H  -1.611389  -1.421123  -2.171332
    H   0.001146   0.614124  -3.192517
    H   2.244557   1.585464  -1.809704
    H  -2.243808   1.584463  -1.811493
    H  -3.442531   0.038684  -0.046923
    H   0.000893  -2.748396  -0.586965
    H   1.613815  -1.420376  -2.170020
    H   3.442578   0.040284  -0.044167
    H   1.613364   2.340567   1.120084
    H  -0.000286   3.082473  -1.032421
    H  -1.615330   2.339793   1.118808
    H  -2.134362  -2.463596   0.454313
    H  -0.000433  -2.016277   2.307807
    H  -0.001274   0.948214   2.643170
    H  -2.132779  -0.124377   2.502584
    H   2.130845  -0.123395   2.504311
    H   2.135178  -2.462597   0.456009
    C  -0.000770   0.525254   1.646790
    C   0.000532  -1.704743  -0.299509
