34
B15C2H17
    B   1.462334   0.982814  -1.124548
    B   0.000697   0.163195  -1.819466
    B  -1.461816   0.982149  -1.125681
    B  -1.461239  -0.767068  -1.282559
    B   1.461742   1.374181   0.586930
    B  -0.000230   1.781485  -0.406370
    B   1.462676  -0.766371  -1.281422
    B   0.000688  -1.681161  -0.716712
    B  -1.462150  -1.456571   0.332364
    B  -1.462866   1.373517   0.585784
    B   1.460290  -0.132744   1.487919
    B  -0.000253  -1.202360   1.375012
    B  -1.461429  -0.133401   1.486750
    B  -0.000817   0.938793   1.566646
    B   1.462574  -1.455888   0.333508
    H  -2.121742  -1.267821  -2.121260
    H   0.001148   0.269101  -2.999599
    H   2.123268   1.624676  -1.860460
    H  -2.122521   1.623604  -1.862157
    H  -3.299807  -0.000854  -0.000978
    H   0.001103  -2.771105  -1.181468
    H   2.123989  -1.266980  -2.119570
    H   3.299821   0.000686   0.001723
    H   2.122602   2.272008   0.970987
    H  -0.000394   2.936628  -0.670130
    H  -2.124376   2.271083   0.969326
    H  -2.123242  -2.408329   0.550286
    H  -0.000458  -1.981356   2.267857
    H  -0.001362   1.547197   2.583483
    H  -2.121643  -0.220926   2.459828
    H   2.119904  -0.219903   2.461436
    H   2.123913  -2.407360   0.551928
    C  -2.218388  -0.000584  -0.000860
    C   2.218402   0.000419   0.000880
