34
B15C2H17
    B   1.465408   0.984883  -1.118790
    B   0.002476   0.261673  -1.886964
    B  -1.467545   0.983198  -1.133964
    B  -1.424285  -0.769142  -1.344444
    B   1.496688   1.359763   0.570510
    B   2.348903  -0.055282  -0.004087
    B   0.005125   1.794256  -0.371262
    B   1.419621  -0.770348  -1.310660
    B  -1.256590  -1.471370   0.304160
    B  -2.331275  -0.066076  -0.030661
    B  -1.467793   1.347404   0.557062
    B   1.475245  -0.125244   1.507717
    B   0.015409  -0.990188   1.698562
    B   0.017633   0.952374   1.599195
    B   1.257716  -1.473329   0.350208
    H  -2.011879  -1.365480  -2.176737
    H   0.009996   0.267460  -3.069698
    H   2.056639   1.651043  -1.897756
    H  -2.091379   1.654023  -1.880967
    H  -3.496647  -0.148432   0.117141
    H  -0.003702  -2.525275  -1.317667
    H   1.991210  -1.376231  -2.148254
    H   3.525653  -0.141315  -0.003230
    H   2.060478   2.310616   0.990654
    H  -0.014631   2.955935  -0.595793
    H  -2.117183   2.195641   1.055552
    H  -1.742326  -2.502640   0.597519
    H  -0.102148  -1.732945   2.607271
    H  -0.093668   1.562159   2.603152
    H  -1.993253  -0.243456   2.219231
    H   2.135843  -0.288852   2.477124
    H   1.686615  -2.557067   0.540777
    C  -0.006066  -1.542404  -0.860541
    C  -1.349871  -0.134600   1.355046
