34
B15C2H17
    B   1.463376   0.993727  -1.126383
    B   0.004160   0.266490  -1.857801
    B  -1.457974   0.993566  -1.139773
    B  -1.410193  -0.760838  -1.304087
    B   1.494009   1.368103   0.581801
    B   2.385150  -0.024280  -0.011423
    B   0.004807   1.791041  -0.385730
    B   1.413372  -0.759728  -1.283149
    B  -1.406609  -1.436587   0.317965
    B  -2.359110  -0.022042  -0.033971
    B  -1.464160   1.358370   0.568735
    B   1.487968  -0.123546   1.502470
    B   0.019095  -1.114360   1.452281
    B   0.014269   0.925598   1.556169
    B   1.429056  -1.445256   0.347304
    H  -1.924095  -1.394142  -2.156061
    H  -0.003517   0.273318  -3.040537
    H   2.027145   1.647850  -1.933907
    H  -2.065242   1.646375  -1.914525
    H  -3.529368  -0.091112   0.071888
    H  -0.011007  -2.544379  -1.030876
    H   1.883221  -1.398594  -2.157283
    H   3.563083  -0.088715  -0.030878
    H   2.030315   2.326339   1.017826
    H  -0.024134   2.954744  -0.598554
    H  -2.086001   2.221401   1.074830
    H  -1.934257  -2.451053   0.594454
    H  -0.091218  -1.918462   2.308325
    H  -0.090879   1.484677   2.590738
    H  -1.914178  -0.237779   2.258667
    H   2.048164  -0.260494   2.534326
    H   1.872948  -2.522875   0.534595
    C  -0.002032  -1.532730  -0.642683
    C  -1.365751  -0.123876   1.334651
