34
B15C2H17
    B   1.477148   0.990869  -1.126629
    B   0.000692   0.161945  -1.806488
    B  -1.461303   0.959339  -1.127603
    B  -1.476152  -0.774711  -1.285904
    B   1.501904   1.397382   0.590308
    B   2.395478   0.022445  -0.001388
    B   0.013891   1.777643  -0.364523
    B   1.462176  -0.743693  -1.279058
    B  -0.013477  -1.684592  -0.674562
    B  -1.502218  -1.479902   0.331443
    B  -2.395450  -0.021656  -0.007154
    B   1.445663  -0.110514   1.473480
    B  -0.006893  -1.252352   1.307952
    B  -1.446765  -0.152959   1.468585
    B   0.005834   0.999997   1.509677
    H  -2.011102  -1.310635  -2.192695
    H   0.001132   0.267590  -2.985641
    H   2.012783   1.679367  -1.923323
    H  -2.044763   1.719300  -1.814174
    H  -3.564122   0.109887   0.058775
    H   0.084279  -2.782293  -1.098834
    H   2.046165  -1.369620  -2.089316
    H   3.564105  -0.118824   0.041011
    H   2.080668   2.334416   1.018110
    H  -0.083619   2.933277  -0.587033
    H  -1.926306   2.091058   0.903794
    H  -2.081269  -2.477999   0.585449
    H   0.074384  -2.037174   2.186313
    H  -0.076156   1.616272   2.513446
    H  -1.982897  -0.136649   2.517870
    H   1.981008  -0.313071   2.503568
    H   1.925919  -2.218667   0.519276
    C   1.382279  -1.308727   0.303984
    C  -1.382598   1.234003   0.530691
