34
B15C2H17
    B   1.460053   0.983643  -1.125354
    B   0.000694   0.163624  -1.822392
    B  -1.459578   0.982978  -1.126501
    B  -1.458879  -0.767704  -1.283513
    B   1.459550   1.375214   0.587371
    B  -0.000234   1.784020  -0.406795
    B   1.460274  -0.767034  -1.282362
    B   0.000681  -1.683781  -0.718031
    B  -1.459743  -1.457886   0.332695
    B  -1.460626   1.374550   0.586221
    B   1.458277  -0.132822   1.488884
    B  -0.000256  -1.203340   1.377870
    B  -1.459373  -0.133484   1.487725
    B  -0.000823   0.939564   1.569141
    B   1.460169  -1.457218   0.333847
    H  -2.124661  -1.266516  -2.119096
    H   0.001133   0.269662  -3.002453
    H   2.126407   1.622974  -1.858459
    H  -2.125650   1.621991  -1.860141
    H  -3.299630  -0.000967  -0.001002
    H   0.001118  -2.773661  -1.182829
    H   2.126935  -1.265558  -2.117415
    H   3.299654   0.000542   0.001618
    H   2.125918   2.269537   0.969849
    H  -0.000393   2.939152  -0.670464
    H  -2.127696   2.268576   0.968170
    H  -2.126423  -2.405855   0.549651
    H  -0.000437  -1.982071   2.270889
    H  -0.001369   1.547918   2.585950
    H  -2.125436  -0.220559   2.456768
    H   2.123628  -0.219586   2.458444
    H   2.127111  -2.404881   0.551331
    C  -2.219175  -0.000642  -0.000983
    C   2.219200   0.000373   0.000773
