34
B15C2H17
    B   1.468433   0.985756  -1.118950
    B   0.000924   0.181857  -1.875218
    B  -1.470946   0.983956  -1.127650
    B  -1.455348  -0.763625  -1.347817
    B   1.501810   1.364483   0.568342
    B   2.339739  -0.059002   0.003442
    B   0.005370   1.782046  -0.354547
    B   1.449763  -0.767159  -1.310576
    B  -1.199616  -1.465039   0.295290
    B  -2.325002  -0.073921  -0.021006
    B  -1.475663   1.348738   0.560165
    B   1.472484  -0.126122   1.513701
    B   0.011621  -0.957882   1.740759
    B   0.016225   0.957725   1.607497
    B   1.204833  -1.470673   0.346912
    H  -2.062523  -1.360313  -2.165237
    H   0.006635   0.179665  -3.057951
    H   2.042882   1.663326  -1.899349
    H  -2.073315   1.670153  -1.877289
    H  -3.488779  -0.177356   0.127478
    H  -0.002622  -2.448258  -1.431406
    H   2.046811  -1.371672  -2.130906
    H   3.514903  -0.167198   0.013053
    H   2.075491   2.311721   0.982353
    H  -0.019684   2.942291  -0.588106
    H  -2.122948   2.203819   1.049178
    H  -1.654670  -2.510861   0.586246
    H  -0.101275  -1.677530   2.668096
    H  -0.096279   1.577749   2.605089
    H  -2.007323  -0.261497   2.216765
    H   2.147804  -0.309705   2.469200
    H   1.604901  -2.566137   0.530655
    C  -0.002522  -1.481872  -0.942578
    C  -1.351693  -0.136714   1.363771
