34
B15C2H17
    B   1.463865   0.974878  -1.122020
    B   0.017454   0.091713  -1.798420
    B  -1.446777   1.002787  -1.111586
    B   1.482723   1.374780   0.587342
    B   2.418791   0.003841   0.002917
    B   0.005288   1.796190  -0.354195
    B   1.518554  -0.767887  -1.282330
    B   0.047148  -1.671151  -0.713509
    B  -2.395419   0.052077   0.021992
    B  -1.485285   1.402659   0.598321
    B   1.461355  -0.136413   1.481336
    B   0.016566  -1.239090   1.309363
    B  -1.445901  -0.109030   1.492549
    B   0.004683   0.989829   1.541203
    B   1.517895  -1.457945   0.332778
    H  -1.941431  -1.216149  -1.888531
    H  -0.101897   0.113898  -2.973471
    H   1.943843   1.657712  -1.960064
    H  -2.048077   1.542617  -1.969160
    H  -3.549990  -0.153099  -0.065915
    H  -0.145006  -2.740640  -1.170735
    H   2.026919  -1.326787  -2.193019
    H   3.599627   0.004404   0.003854
    H   2.041149   2.333780   0.997102
    H  -0.017766   2.942610  -0.650738
    H  -2.098189   2.331305   0.994850
    H  -1.942557  -2.204106   0.427343
    H  -0.103538  -2.072779   2.137575
    H  -0.018857   1.569614   2.573686
    H  -2.047103  -0.354496   2.475794
    H   1.940170  -0.269029   2.554717
    H   2.026847  -2.501949   0.559094
    C  -1.372234  -0.669051  -1.151669
    C  -1.372433  -1.294344   0.312953
