34
B15C2H17
    B   1.455532   0.992434  -1.135910
    B   0.000685   0.382218  -1.908537
    B  -1.455060   0.991775  -1.137082
    B  -1.365156  -0.767387  -1.288434
    B   1.369936   1.379973   0.586466
    B   2.310384  -0.017736   0.021771
    B  -0.000169   1.840943  -0.629955
    B   1.366520  -0.766750  -1.287344
    B  -1.361175  -1.469558   0.342293
    B  -2.310371  -0.018786   0.019899
    B  -1.371005   1.379363   0.585364
    B   1.356439  -0.141303   1.502148
    B  -0.000290  -1.318514   1.499580
    B  -1.357546  -0.141952   1.501054
    B   1.361619  -1.468942   0.343419
    H  -1.908829  -1.371447  -2.144477
    H   0.001182   0.392221  -3.090616
    H   2.152247   1.620174  -1.858307
    H  -2.151448   1.619221  -1.860051
    H  -3.489264  -0.031881   0.034180
    H   0.001031  -2.620257  -1.102903
    H   1.911209  -1.370555  -2.142921
    H   3.489271  -0.030240   0.037012
    H   1.918019   2.307189   1.069456
    H  -0.000376   3.011863  -0.792513
    H  -1.919895   2.306309   1.067955
    H  -1.936481  -2.486228   0.523646
    H  -0.000438  -2.099378   2.384943
    H  -0.001282   1.464110   2.434519
    H  -1.926776  -0.182638   2.536262
    H   1.924834  -0.181689   2.537829
    H   1.937206  -2.485391   0.525109
    C  -0.000801   0.906603   1.506028
    C   0.000666  -1.623011  -0.680477
