34
B15C2H17
    B   1.464830   0.994478  -1.133480
    B   0.012451   0.561585  -1.918001
    B  -1.462818   0.998635  -1.158929
    B  -1.213413  -0.763445  -1.314453
    B   1.489066   1.356749   0.587818
    B   2.346421  -0.040845  -0.038851
    B  -0.004348   1.826189  -0.449221
    B   1.219547  -0.767863  -1.295930
    B  -2.328116  -0.029467  -0.051748
    B  -1.478610   1.362735   0.570965
    B   1.493494  -0.123237   1.489513
    B   0.026555  -1.181310   1.458348
    B  -1.470661  -0.115007   1.474057
    B   0.007133   0.929324   1.555782
    B   1.452578  -1.482153   0.357959
    H  -1.695790  -1.463919  -2.129389
    H   0.002849   0.660873  -3.096052
    H   2.149049   1.557154  -1.920615
    H  -2.168617   1.559524  -1.926057
    H  -3.487629  -0.233316  -0.093283
    H  -0.061252  -2.726689  -0.727054
    H   1.607265  -1.435203  -2.189347
    H   3.521381  -0.125733  -0.110709
    H   2.065885   2.302026   1.000659
    H  -0.004599   2.994853  -0.634047
    H  -2.095889   2.278217   0.990713
    H  -1.922923  -2.243329   0.486326
    H  -0.071326  -2.051372   2.249071
    H  -0.023031   1.521232   2.580798
    H  -2.097159  -0.339080   2.447681
    H   2.056622  -0.243654   2.522684
    H   2.028228  -2.504417   0.494412
    C  -1.356601  -1.336332   0.326614
    C  -0.000151  -1.696451  -0.406829
