34
B15C2H17
    B   1.444112   0.999803  -1.144708
    B   0.000704   0.409603  -1.932473
    B  -1.443577   0.999138  -1.145843
    B  -1.332281  -0.769235  -1.287610
    B   1.341814   1.380130   0.588127
    B   2.295995  -0.014016   0.017467
    B  -0.000135   1.861373  -0.657087
    B   1.333710  -0.768597  -1.286606
    B  -1.367875  -1.470535   0.342480
    B  -2.296001  -0.015026   0.015653
    B  -1.342978   1.379566   0.587068
    B   1.359113  -0.141090   1.502734
    B  -0.000306  -1.324210   1.496107
    B  -1.360308  -0.141716   1.501689
    B   1.368295  -1.469944   0.343578
    H  -1.880693  -1.364546  -2.147300
    H   0.001183   0.420680  -3.114716
    H   2.167302   1.613760  -1.853304
    H  -2.166544   1.612635  -1.855068
    H  -3.475094  -0.024221   0.024023
    H   0.001016  -2.661501  -1.048207
    H   1.883065  -1.363843  -2.145737
    H   3.475084  -0.022465   0.027101
    H   1.898187   2.307769   1.061735
    H  -0.000341   3.033482  -0.812693
    H  -1.900042   2.306993   1.060273
    H  -1.973405  -2.468290   0.531809
    H  -0.000426  -2.108568   2.378114
    H  -0.001302   1.430320   2.473474
    H  -1.954383  -0.192330   2.522664
    H   1.952611  -0.191317   2.524065
    H   1.974076  -2.467487   0.533203
    C  -0.000823   0.882445   1.538698
    C   0.000664  -1.658008  -0.639304
