34
B15C2H17
    B   1.472502   0.983002  -1.125425
    B  -0.000531   0.169454  -1.814490
    B  -1.472512   0.980806  -1.124538
    B  -1.466563  -0.765733  -1.279446
    B   1.477735   1.369836   0.586641
    B   2.399136  -0.003906   0.001048
    B  -0.000158   1.770320  -0.401587
    B   1.467111  -0.764384  -1.279905
    B  -1.465078  -1.448114   0.331660
    B  -2.392505  -0.005159  -0.002242
    B  -1.473478   1.365826   0.583597
    B   1.471064  -0.134166   1.491159
    B   0.002756  -1.188432   1.371125
    B   0.000072   0.927754   1.553749
    B   1.468882  -1.451412   0.337195
    H  -2.027948  -1.316409  -2.166630
    H  -0.005005   0.260877  -2.999821
    H   2.033840   1.665959  -1.917691
    H  -2.044272   1.661556  -1.909537
    H  -3.576507  -0.018157   0.010099
    H  -0.006974  -2.671492  -1.124829
    H   2.018446  -1.317478  -2.173376
    H   3.584666  -0.015073   0.000712
    H   2.039514   2.329141   1.002536
    H  -0.007649   2.931012  -0.658161
    H  -2.047355   2.311711   1.008439
    H  -2.024431  -2.463939   0.571608
    H  -0.015200  -1.974185   2.260768
    H  -0.018691   1.529690   2.577661
    H  -1.981668  -0.229593   2.429333
    H   2.028455  -0.236763   2.534420
    H   2.016976  -2.478429   0.565872
    C  -0.001110  -1.640336  -0.696031
    C  -1.453102  -0.133029   1.455495
