34
B15C2H17
    B   1.471225   0.985742  -1.118422
    B   0.000858   0.168107  -1.870719
    B  -1.472944   0.983323  -1.126112
    B  -1.461461  -0.763331  -1.348181
    B   1.503430   1.364808   0.567854
    B   2.339517  -0.060020   0.005561
    B   0.005643   1.777739  -0.352577
    B   1.456313  -0.766601  -1.310679
    B  -1.189737  -1.463590   0.294073
    B  -2.324710  -0.075308  -0.017991
    B  -1.477239   1.349155   0.560457
    B   1.470960  -0.125397   1.514895
    B   0.010913  -0.954256   1.746083
    B   0.016078   0.959399   1.607429
    B   1.195155  -1.469623   0.345424
    H  -2.072475  -1.360323  -2.162356
    H   0.006020   0.167508  -3.053404
    H   2.041468   1.665390  -1.899821
    H  -2.072382   1.671610  -1.875994
    H  -3.488302  -0.182453   0.129192
    H  -0.001712  -2.432500  -1.452899
    H   2.056374  -1.372261  -2.127884
    H   3.514272  -0.172309   0.017882
    H   2.076649   2.312280   0.981925
    H  -0.020138   2.937260  -0.590212
    H  -2.123812   2.205068   1.048909
    H  -1.637914  -2.512589   0.584093
    H  -0.101581  -1.668533   2.677540
    H  -0.095772   1.580566   2.604415
    H  -2.008127  -0.263051   2.217264
    H   2.148686  -0.312368   2.468042
    H   1.588758  -2.567328   0.529398
    C  -0.002015  -1.468670  -0.959094
    C  -1.351579  -0.136692   1.365313
