36
B16C2H18
    B   2.095098  -0.758340  -0.616578
    B   2.161051  -0.195533   1.040303
    B   2.173782   0.973771  -0.311984
    B   0.686297  -0.054170   1.891522
    B   0.991965  -1.486105   0.722204
    B   0.543250  -1.386911  -1.180976
    B   1.264773   0.316063  -1.663256
    B   1.308853   1.381412   1.127303
    B   0.593717   1.684335  -0.652102
    B  -0.991754  -0.767282   1.496385
    B  -0.526238   1.105833   1.399201
    B  -0.546609   0.627324  -1.628155
    B  -0.652916  -1.876395   0.051256
    B  -2.151120  -1.049073   0.177212
    B  -2.168178   0.339861  -0.923611
    B  -2.100856   0.570226   0.817352
    H   3.104121   1.655067  -0.577767
    H   2.975106  -1.413149  -1.058717
    H   3.123628  -0.438243   1.681211
    H   0.638703   2.773527  -1.107997
    H   1.638232   2.337038   1.738111
    H   0.753411  -0.121839   3.072072
    H   1.315163  -2.514908   1.208089
    H   0.708993  -2.266997  -1.950866
    H   1.599284   0.422671  -2.791418
    H  -0.850455   1.076757  -2.677522
    H  -1.569172  -1.517570  -2.122092
    H  -0.854070  -3.038616  -0.014588
    H  -1.342069  -1.280528   2.499598
    H  -0.850045   1.904640   2.209454
    H  -1.526964   2.489983  -0.326164
    H  -3.014458   1.099932   1.338883
    H  -3.080563   0.627545  -1.606426
    H  -3.108559  -1.733548   0.228142
    C  -1.191298  -0.969219  -1.270530
    C  -1.149204   1.483312  -0.217671
