36
B16C2H18
    B   2.070650  -0.797002  -0.590154
    B   2.097335  -0.115579   1.006612
    B   2.088196   0.941109  -0.385833
    B   0.638086  -0.109632   1.905462
    B   1.054578  -1.533406   0.737061
    B   0.599862  -1.585639  -1.057057
    B   1.058081   1.424250   0.983036
    B   0.630145   1.744950  -0.787303
    B  -1.069089  -0.787176   1.526965
    B  -0.641385   0.992185   1.629705
    B  -1.041910   1.669396  -0.063964
    B  -0.648790  -1.890854   0.077320
    B  -1.154568  -1.024369  -1.393221
    B  -2.133652  -1.012615   0.109128
    B  -2.073056   0.401333  -0.911492
    B  -2.107333   0.590828   0.826411
    H   3.034721   1.538159  -0.756266
    H   2.998885  -1.240564  -1.167137
    H   3.102006  -0.232130   1.617065
    H   0.826744   2.703987  -1.444046
    H   1.428890   2.404275   1.530552
    H   0.889611  -0.210081   3.057739
    H   1.449632  -2.526673   1.239825
    H   0.897256  -2.415141  -1.842066
    H   1.350647   0.230586  -2.576202
    H  -0.718033   1.196811  -2.470760
    H  -1.436762  -1.427906  -2.464992
    H  -0.842083  -3.060796   0.072350
    H  -1.430473  -1.364245   2.493128
    H  -0.883192   1.668736   2.570223
    H  -1.392263   2.781874  -0.247726
    H  -3.090930   1.039637   1.302040
    H  -2.917016   0.742535  -1.662263
    H  -3.129954  -1.642012   0.186932
    C   1.028919   0.158737  -1.546567
    C  -0.532853   0.747304  -1.504627
