36
B16C2H18
    B   2.108929  -0.803457  -0.608346
    B   2.106853  -0.124629   1.004425
    B   2.116555   0.939107  -0.391897
    B   0.639115  -0.112775   1.900520
    B   1.064523  -1.540834   0.730681
    B   0.634193  -1.565401  -1.054762
    B   1.124620   0.153283  -1.691359
    B   1.067202   1.411513   0.973476
    B   0.636184   1.676930  -0.826101
    B  -1.066312  -0.773766   1.538263
    B  -0.631802   1.007005   1.626688
    B  -1.063788   1.687385  -0.058308
    B  -0.614896  -1.875419   0.107652
    B  -2.092815  -0.997346   0.115634
    B  -2.083079   0.430153  -0.873279
    B  -2.112538   0.589160   0.842922
    H   3.064885   1.590991  -0.653572
    H   3.035576  -1.337824  -1.109741
    H   3.091794  -0.245646   1.644319
    H   0.760184   2.680070  -1.436577
    H   1.403594   2.404532   1.517478
    H   0.882074  -0.214904   3.054015
    H   1.404532  -2.553558   1.236896
    H   0.760827  -2.487316  -1.780572
    H   1.348261   0.199852  -2.848600
    H  -0.826504   1.141206  -2.472709
    H  -1.336834  -1.269988  -2.205002
    H  -0.914786  -3.010863  -0.012368
    H  -1.463052  -1.376175   2.474191
    H  -0.882977   1.681512   2.564994
    H  -1.447149   2.786055  -0.238578
    H  -3.120927   0.998844   1.298776
    H  -2.961308   0.633504  -1.630795
    H  -3.061358  -1.661496   0.029960
    C  -0.571636   0.776860  -1.490724
    C  -0.997238  -0.835695  -1.277725
