36
B16C2H18
    B   2.112359  -0.802341  -0.600338
    B   2.094785  -0.119323   1.006678
    B   2.123823   0.947132  -0.391285
    B   0.637674  -0.106170   1.907788
    B   1.062864  -1.533545   0.727364
    B   0.648149  -1.568106  -1.078922
    B   1.219316   0.167806  -1.726889
    B   1.034347   1.419818   0.952778
    B   0.646105   1.656797  -0.868861
    B  -1.069502  -0.779245   1.538045
    B  -0.644693   0.992720   1.640532
    B  -1.039899   1.674049  -0.040930
    B  -0.614445  -1.847254   0.086516
    B  -2.111761  -0.993897   0.112808
    B  -2.134055   0.459323  -0.858315
    B  -2.120839   0.591871   0.856711
    H   3.080848   1.603527  -0.612076
    H   3.046814  -1.356563  -1.071382
    H   3.076098  -0.233480   1.655219
    H   0.727946   2.672296  -1.466416
    H   1.378913   2.409187   1.499997
    H   0.888313  -0.212328   3.059678
    H   1.411186  -2.540118   1.241531
    H   0.761305  -2.480703  -1.818636
    H   1.406350   0.218978  -2.889798
    H  -0.834802   1.086149  -2.470679
    H  -1.375412  -1.287223  -2.189550
    H  -0.918402  -2.983144  -0.035701
    H  -1.445990  -1.381182   2.483489
    H  -0.885804   1.655387   2.590848
    H  -1.388420   2.785036  -0.222456
    H  -3.117382   1.013585   1.330970
    H  -2.991771   0.674838  -1.635030
    H  -3.068314  -1.678552   0.044489
    C  -0.570089   0.715420  -1.489073
    C  -1.024713  -0.839874  -1.269227
