36
B16C2H18
    B   2.087128  -0.801712  -0.585708
    B   2.101100  -0.119119   1.013756
    B   2.096884   0.937265  -0.383827
    B   0.633337  -0.116045   1.897075
    B   1.066431  -1.537129   0.733708
    B   0.603021  -1.576536  -1.054749
    B   1.065626   1.417963   0.987511
    B   0.627380   1.723176  -0.791993
    B  -1.078764  -0.779676   1.528321
    B  -0.640652   0.996563   1.622930
    B  -1.061650   1.676178  -0.065486
    B  -0.644404  -1.885600   0.084314
    B  -1.142120  -1.015494  -1.388571
    B  -2.134196  -1.013336   0.112112
    B  -2.086257   0.402444  -0.910357
    B  -2.115094   0.587329   0.832457
    H   3.028372   1.549233  -0.769525
    H   3.005322  -1.247820  -1.177983
    H   3.103661  -0.232354   1.629963
    H   0.832505   2.686344  -1.442109
    H   1.440025   2.397131   1.535459
    H   0.879415  -0.217302   3.051396
    H   1.454638  -2.534141   1.236246
    H   0.905451  -2.407448  -1.837599
    H   1.334803   0.225952  -2.581817
    H  -0.722291   1.199466  -2.471071
    H  -1.431196  -1.408182  -2.463414
    H  -0.839246  -3.055975   0.074613
    H  -1.435204  -1.356606   2.497144
    H  -0.878667   1.679174   2.560962
    H  -1.387736   2.796511  -0.247627
    H  -3.098277   1.038252   1.309161
    H  -2.925854   0.724775  -1.675224
    H  -3.128144  -1.649317   0.177397
    C   1.035040   0.155171  -1.543007
    C  -0.549488   0.761737  -1.494580
