36
B16C2H18
    B   2.110385  -0.803877  -0.604602
    B   2.100661  -0.125509   1.007122
    B   2.125787   0.942448  -0.390551
    B   0.638908  -0.102573   1.901228
    B   1.064190  -1.532854   0.727582
    B   0.647642  -1.571824  -1.079882
    B   1.201978   0.165966  -1.721413
    B   1.056003   1.415854   0.964187
    B   0.646450   1.667644  -0.848491
    B  -1.071064  -0.772980   1.536224
    B  -0.639739   0.999899   1.623677
    B  -1.059939   1.677758  -0.052486
    B  -0.610824  -1.854808   0.098411
    B  -2.110100  -0.997251   0.115802
    B  -2.141821   0.449448  -0.868660
    B  -2.125764   0.590855   0.851706
    H   3.081441   1.598729  -0.618644
    H   3.044155  -1.354474  -1.081169
    H   3.080898  -0.247474   1.655927
    H   0.732630   2.681231  -1.448436
    H   1.404342   2.399765   1.518647
    H   0.880731  -0.209940   3.054985
    H   1.415939  -2.536684   1.246033
    H   0.760812  -2.489930  -1.812548
    H   1.390660   0.220944  -2.884041
    H  -0.833581   1.103312  -2.462760
    H  -1.364414  -1.281016  -2.191908
    H  -0.918736  -2.988207  -0.035868
    H  -1.444625  -1.366680   2.487990
    H  -0.883876   1.664711   2.572158
    H  -1.408186   2.788234  -0.237587
    H  -3.117135   1.010318   1.338548
    H  -2.998328   0.656329  -1.648821
    H  -3.064175  -1.684849   0.037204
    C  -0.574665   0.726777  -1.481150
    C  -1.015740  -0.838419  -1.268536
