36
B16C2H18
    B   2.092562  -0.806990  -0.600361
    B   2.099379  -0.116683   1.009672
    B   2.103632   0.933642  -0.390960
    B   0.645464  -0.100753   1.906918
    B   1.024574  -1.536356   0.753626
    B   0.633962  -1.581306  -1.060489
    B   1.076430   0.144416  -1.715080
    B   1.043104   1.418227   0.964706
    B   0.639092   1.695278  -0.855322
    B  -0.964409  -0.810181   1.533087
    B  -0.634802   1.005536   1.637769
    B  -1.035607   1.705429  -0.115035
    B  -0.622987   0.890165  -1.710179
    B  -0.639444  -1.919828   0.030885
    B  -1.036626  -0.921411  -1.453750
    B  -2.071388   0.430882  -0.936590
    H   3.077618   1.566701  -0.607730
    H   3.060253  -1.345037  -1.013133
    H   3.065674  -0.238932   1.677919
    H   0.842246   2.769035  -1.312242
    H   1.372641   2.389963   1.553161
    H   0.855785  -0.208327   3.067906
    H   1.355458  -2.527619   1.307254
    H   0.866334  -2.544107  -1.709540
    H   1.434094   0.153367  -2.842240
    H  -0.926377   1.405089  -2.732136
    H  -1.574072  -1.501299  -2.330515
    H  -1.008315  -3.037873   0.118042
    H  -1.538266  -1.341591   2.414179
    H  -0.996858   1.640949   2.564215
    H  -1.531232   2.772152  -0.027076
    H  -2.858962   0.811022   1.193403
    H  -3.152197   0.609636  -1.366035
    H  -2.860265  -1.428908   0.217319
    C  -1.914949   0.540561   0.744104
    C  -1.920645  -0.913977   0.084127
