36
B16C2H18
    B   2.068341  -0.795934  -0.588096
    B   2.095223  -0.113900   1.008080
    B   2.089948   0.941841  -0.385209
    B   0.639279  -0.104705   1.908731
    B   1.046362  -1.529272   0.740605
    B   0.598034  -1.585564  -1.058221
    B   1.052884   1.426996   0.980748
    B   0.632525   1.742524  -0.795085
    B  -1.060928  -0.791799   1.523713
    B  -0.643225   0.990449   1.635093
    B  -1.036412   1.667682  -0.060085
    B  -0.651564  -1.893710   0.072471
    B  -1.155105  -1.023199  -1.393779
    B  -2.133698  -1.013343   0.107456
    B  -2.073825   0.402841  -0.909485
    B  -2.105460   0.588358   0.828470
    H   3.036169   1.539106  -0.756192
    H   2.995879  -1.244026  -1.162929
    H   3.100331  -0.231703   1.617707
    H   0.828842   2.701989  -1.451308
    H   1.423628   2.407552   1.527566
    H   0.892798  -0.203437   3.060712
    H   1.442078  -2.522014   1.244287
    H   0.900134  -2.413785  -1.842800
    H   1.351144   0.228159  -2.578817
    H  -0.719094   1.193947  -2.472559
    H  -1.440887  -1.425139  -2.465442
    H  -0.842452  -3.063978   0.065486
    H  -1.421170  -1.371020   2.489308
    H  -0.887317   1.666987   2.574994
    H  -1.384286   2.781402  -0.241799
    H  -3.089475   1.036871   1.303691
    H  -2.917269   0.744843  -1.660496
    H  -3.131329  -1.640674   0.186400
    C   1.032636   0.160002  -1.547736
    C  -0.531841   0.746523  -1.505601
