36
B16C2H18
    B   2.111954  -0.802600  -0.601423
    B   2.098920  -0.121913   1.008816
    B   2.124697   0.945942  -0.389448
    B   0.639134  -0.104742   1.907059
    B   1.064577  -1.534745   0.726491
    B   0.648788  -1.569907  -1.078359
    B   1.217141   0.169299  -1.723844
    B   1.045443   1.418403   0.958594
    B   0.643920   1.656414  -0.861129
    B  -1.070375  -0.777878   1.538212
    B  -0.640748   0.997827   1.631690
    B  -1.050209   1.674236  -0.048634
    B  -0.613930  -1.846323   0.087433
    B  -2.111377  -0.993999   0.112236
    B  -2.138703   0.457902  -0.859564
    B  -2.122032   0.592062   0.855723
    H   3.080631   1.602673  -0.614231
    H   3.046228  -1.356024  -1.073885
    H   3.081430  -0.240008   1.654798
    H   0.728087   2.672586  -1.457415
    H   1.388307   2.408303   1.505728
    H   0.883533  -0.212380   3.060154
    H   1.411206  -2.542353   1.239803
    H   0.762086  -2.482117  -1.818440
    H   1.402024   0.221844  -2.887032
    H  -0.834323   1.088262  -2.468775
    H  -1.373168  -1.286225  -2.189271
    H  -0.918304  -2.982030  -0.036007
    H  -1.446477  -1.378016   2.484721
    H  -0.885022   1.661757   2.580544
    H  -1.398693   2.785326  -0.229612
    H  -3.117383   1.011395   1.334446
    H  -2.994138   0.669602  -1.639784
    H  -3.067022  -1.680153   0.045167
    C  -0.572419   0.717804  -1.486371
    C  -1.022885  -0.839354  -1.268514
