36
B16C2H18
    B   2.104248  -0.804834  -0.613043
    B   2.098281  -0.126471   1.007441
    B   2.106274   0.937520  -0.387112
    B   0.634228  -0.130861   1.896868
    B   1.070054  -1.552712   0.727474
    B   0.638247  -1.574679  -1.065024
    B   1.087045   0.150820  -1.715850
    B   1.059981   1.408746   0.974437
    B   0.642335   1.698147  -0.852686
    B  -1.024238  -0.767627   1.528335
    B  -0.627163   1.005881   1.607859
    B  -1.047811   1.698640  -0.116217
    B  -0.619484   0.877858  -1.696182
    B  -0.621594  -1.888427   0.064127
    B  -1.041448  -0.929207  -1.439792
    B  -2.066009   0.415684  -0.920422
    H   3.077083   1.576905  -0.599026
    H   3.071483  -1.334759  -1.036170
    H   3.057472  -0.243841   1.687023
    H   0.830435   2.774291  -1.308174
    H   1.377716   2.378584   1.570955
    H   0.825930  -0.255187   3.058308
    H   1.391349  -2.547743   1.278533
    H   0.841784  -2.537895  -1.722324
    H   1.437495   0.170983  -2.844733
    H  -0.933689   1.384189  -2.718618
    H  -1.572558  -1.506480  -2.320823
    H  -0.983827  -3.008047   0.166044
    H  -1.571741  -1.294414   2.428240
    H  -0.976687   1.630840   2.547012
    H  -1.542977   2.766760  -0.053327
    H  -2.869419   0.828605   1.193463
    H  -3.130873   0.606069  -1.383404
    H  -2.863252  -1.439628   0.222833
    C  -1.928191   0.549133   0.745974
    C  -1.929578  -0.915971   0.087880
