36
B16C2H18
    B   2.111834  -0.802336  -0.600432
    B   2.094273  -0.119015   1.006447
    B   2.123280   0.946987  -0.391692
    B   0.637608  -0.106212   1.908518
    B   1.062882  -1.533870   0.727046
    B   0.647526  -1.568043  -1.079180
    B   1.219090   0.168031  -1.727201
    B   1.031571   1.420677   0.951193
    B   0.646824   1.657358  -0.870868
    B  -1.069998  -0.779710   1.538233
    B  -0.645280   0.991793   1.642315
    B  -1.037263   1.673635  -0.039348
    B  -0.614335  -1.848015   0.087583
    B  -2.111288  -0.993562   0.112574
    B  -2.132950   0.459771  -0.858214
    B  -2.120814   0.592073   0.856610
    H   3.080927   1.603099  -0.610673
    H   3.046802  -1.356098  -1.070989
    H   3.075556  -0.232107   1.655169
    H   0.727784   2.672475  -1.469128
    H   1.376561   2.409901   1.498447
    H   0.889115  -0.212872   3.060156
    H   1.412447  -2.540292   1.240696
    H   0.760854  -2.480816  -1.818650
    H   1.406753   0.219290  -2.890027
    H  -0.835008   1.085302  -2.471305
    H  -1.375928  -1.287597  -2.188922
    H  -0.918850  -2.983681  -0.035109
    H  -1.446589  -1.381626   2.483675
    H  -0.886316   1.654164   2.592817
    H  -1.386399   2.784500  -0.220762
    H  -3.117288   1.014081   1.330698
    H  -2.990597   0.676413  -1.634676
    H  -3.068118  -1.677798   0.043573
    C  -0.569269   0.715074  -1.489742
    C  -1.024495  -0.840102  -1.268955
