36
B16C2H18
    B   2.102660  -0.804955  -0.610112
    B   2.099989  -0.125492   1.005176
    B   2.102601   0.932816  -0.391531
    B   0.625806  -0.127137   1.892009
    B   1.070241  -1.547234   0.728490
    B   0.629372  -1.575588  -1.054818
    B   1.072814   0.144432  -1.703988
    B   1.067253   1.403694   0.975556
    B   0.630731   1.700732  -0.839012
    B  -1.068710  -0.764931   1.521178
    B  -0.637090   1.006652   1.599786
    B  -1.074202   1.699056  -0.099078
    B  -0.632681   0.881471  -1.676591
    B  -0.632282  -1.888709   0.074053
    B  -1.068937  -0.934283  -1.425882
    B  -2.096842   0.412502  -0.912904
    H   3.081412   1.564773  -0.618159
    H   3.081074  -1.321229  -1.039419
    H   3.075519  -0.241653   1.670761
    H   0.864667   2.759088  -1.326086
    H   1.435662   2.365725   1.565468
    H   0.857429  -0.232035   3.052604
    H   1.440223  -2.536818   1.270102
    H   0.863254  -2.531580  -1.720844
    H   1.448017   0.171985  -2.830318
    H  -0.892905   1.398643  -2.713442
    H  -1.472209  -1.494955  -2.389142
    H  -0.898536  -3.043203   0.149852
    H  -1.471926  -1.325759   2.483223
    H  -0.901869   1.643471   2.566108
    H  -1.476925   2.813598  -0.086375
    H  -2.998176   0.953420   1.293402
    H  -3.090501   0.649331  -1.511569
    H  -2.995149  -1.596554   0.198528
    C  -2.070154   0.577850   0.805152
    C  -2.068731  -0.986254   0.097698
