36
B16C2H18
    B   2.103584  -0.802180  -0.609131
    B   2.105635  -0.123571   1.004217
    B   2.104616   0.934894  -0.395588
    B   0.636144  -0.118987   1.901313
    B   1.064580  -1.543651   0.730059
    B   0.628358  -1.557857  -1.049122
    B   1.090723   0.141999  -1.685739
    B   1.066561   1.407430   0.973816
    B   0.625368   1.673079  -0.828764
    B  -1.066485  -0.773038   1.534803
    B  -0.629820   1.007720   1.621244
    B  -1.065821   1.684492  -0.072057
    B  -0.618670  -1.875765   0.096684
    B  -2.085002  -0.994452   0.106305
    B  -2.065184   0.423662  -0.885300
    B  -2.103098   0.587176   0.832653
    H   3.055301   1.580475  -0.658921
    H   3.041993  -1.327001  -1.095085
    H   3.089760  -0.240550   1.644383
    H   0.784136   2.686149  -1.412921
    H   1.413102   2.393049   1.523050
    H   0.878097  -0.220676   3.054345
    H   1.411656  -2.552042   1.237133
    H   0.785596  -2.484623  -1.762328
    H   1.359471   0.179929  -2.833361
    H  -0.838468   1.173144  -2.506387
    H  -1.336522  -1.269830  -2.237205
    H  -0.900968  -3.019472   0.028982
    H  -1.465954  -1.367438   2.472968
    H  -0.882284   1.674147   2.563831
    H  -1.455845   2.786470  -0.205262
    H  -3.106797   0.995359   1.296434
    H  -2.969710   0.638574  -1.607131
    H  -3.059268  -1.652253   0.064205
    C  -0.589770   0.793429  -1.531699
    C  -1.004113  -0.836918  -1.310547
