36
B16C2H18
    B   2.099783  -0.805459  -0.607392
    B   2.098525  -0.122957   1.006380
    B   2.103534   0.935465  -0.387367
    B   0.636356  -0.119759   1.898769
    B   1.053700  -1.544894   0.737159
    B   0.635770  -1.577462  -1.060935
    B   1.081874   0.147514  -1.714751
    B   1.047040   1.410647   0.967185
    B   0.637118   1.692024  -0.851297
    B  -0.996878  -0.791530   1.545117
    B  -0.631361   1.009691   1.631780
    B  -1.041426   1.706285  -0.117307
    B  -0.623122   0.884443  -1.706870
    B  -0.629652  -1.911376   0.047454
    B  -1.038882  -0.924821  -1.446305
    B  -2.074259   0.429115  -0.942261
    H   3.075784   1.571102  -0.604604
    H   3.069223  -1.335832  -1.025866
    H   3.063843  -0.237036   1.677946
    H   0.836627   2.767351  -1.306324
    H   1.380296   2.380102   1.557536
    H   0.848051  -0.231703   3.059332
    H   1.379684  -2.537417   1.291433
    H   0.860503  -2.539718  -1.713753
    H   1.436124   0.159279  -2.842880
    H  -0.918379   1.402684  -2.729717
    H  -1.573904  -1.511230  -2.320228
    H  -0.997529  -3.029604   0.138511
    H  -1.572562  -1.320807   2.426017
    H  -0.990444   1.645503   2.559288
    H  -1.532919   2.774975  -0.032473
    H  -2.864176   0.821548   1.190735
    H  -3.155146   0.605347  -1.372336
    H  -2.859153  -1.432831   0.216306
    C  -1.921066   0.544550   0.744427
    C  -1.922076  -0.912318   0.087167
