36
B16C2H18
    B   2.098043  -0.806579  -0.605344
    B   2.099444  -0.121026   1.007783
    B   2.104194   0.935165  -0.388765
    B   0.638664  -0.113809   1.900077
    B   1.044459  -1.542116   0.742434
    B   0.635058  -1.578606  -1.060525
    B   1.079578   0.146301  -1.715059
    B   1.044767   1.413002   0.966282
    B   0.637335   1.692735  -0.851380
    B  -0.986553  -0.797493   1.541247
    B  -0.633028   1.007965   1.633829
    B  -1.039589   1.705262  -0.116285
    B  -0.623561   0.886474  -1.707508
    B  -0.633197  -1.913891   0.041734
    B  -1.037784  -0.922791  -1.447354
    B  -2.073296   0.429886  -0.940489
    H   3.076548   1.570374  -0.606505
    H   3.066542  -1.339665  -1.022502
    H   3.064450  -0.237001   1.679222
    H   0.839050   2.766986  -1.308008
    H   1.377532   2.382850   1.556193
    H   0.851618  -0.222605   3.060695
    H   1.371255  -2.534234   1.296952
    H   0.862339  -2.541077  -1.712032
    H   1.434149   0.157155  -2.843102
    H  -0.920655   1.403672  -2.730260
    H  -1.571738  -1.507736  -2.322996
    H  -1.001554  -3.032035   0.130971
    H  -1.561061  -1.328761   2.421805
    H  -0.992429   1.644677   2.560487
    H  -1.531151   2.773865  -0.029769
    H  -2.863478   0.819088   1.191088
    H  -3.154333   0.605931  -1.370363
    H  -2.859185  -1.431698   0.216304
    C  -1.919762   0.542943   0.744296
    C  -1.921769  -0.912337   0.086725
