36
B16C2H18
    B   2.108196  -0.796497  -0.612689
    B   2.111342  -0.125846   1.004164
    B   2.110561   0.934268  -0.383544
    B   0.636689  -0.121312   1.888706
    B   1.072696  -1.542190   0.724121
    B   0.627044  -1.563365  -1.054515
    B   1.080004   0.147101  -1.699553
    B   1.083627   1.402063   0.979808
    B   0.630084   1.688246  -0.830347
    B  -1.074662  -0.763862   1.520612
    B  -0.626662   1.016698   1.594639
    B  -0.625789   0.862480  -1.675873
    B  -0.635270  -1.885998   0.074786
    B  -2.105575  -1.002338   0.097435
    B  -2.101269   0.404092  -0.917384
    B  -2.103012   0.582907   0.811681
    H   3.084869   1.571834  -0.613483
    H   3.083547  -1.310280  -1.052174
    H   3.091334  -0.244961   1.662907
    H   0.851623   2.745281  -1.323866
    H   1.452863   2.368755   1.562291
    H   0.871905  -0.217531   3.049612
    H   1.443581  -2.536657   1.255806
    H   0.854969  -2.511947  -1.732042
    H   1.447480   0.179619  -2.827921
    H  -0.884686   1.381322  -2.710192
    H  -1.430484  -1.420644  -2.320503
    H  -0.887911  -3.044981   0.126286
    H  -1.463354  -1.324830   2.490371
    H  -0.881446   1.672425   2.550884
    H  -1.436765   2.708024  -0.101747
    H  -3.083844   1.010378   1.321333
    H  -3.073939   0.651109  -1.545891
    H  -3.088674  -1.658666   0.179720
    C  -1.068552  -0.908018  -1.397219
    C  -1.069621   1.654193  -0.096341
