36
B16C2H18
    B   2.075310  -0.797978  -0.589403
    B   2.099083  -0.117397   1.007327
    B   2.089581   0.940473  -0.383793
    B   0.636951  -0.112222   1.901037
    B   1.059497  -1.534819   0.734062
    B   0.600689  -1.579668  -1.058673
    B   1.061428   1.422202   0.985634
    B   0.629083   1.739895  -0.787407
    B  -1.072645  -0.782703   1.526590
    B  -0.640213   0.994096   1.624880
    B  -1.048208   1.670668  -0.064884
    B  -0.645845  -1.886944   0.079973
    B  -1.153938  -1.024865  -1.391322
    B  -2.133557  -1.012759   0.108833
    B  -2.077098   0.401236  -0.913303
    B  -2.109096   0.590663   0.825797
    H   3.032347   1.541963  -0.756588
    H   3.000223  -1.241708  -1.171371
    H   3.101422  -0.234233   1.621428
    H   0.827265   2.702257  -1.438825
    H   1.432999   2.399131   1.537655
    H   0.885159  -0.213823   3.053982
    H   1.450747  -2.528636   1.238491
    H   0.896954  -2.412547  -1.840574
    H   1.350866   0.228729  -2.576792
    H  -0.721356   1.198117  -2.472542
    H  -1.439109  -1.429866  -2.461795
    H  -0.837589  -3.057107   0.076728
    H  -1.432775  -1.357289   2.494729
    H  -0.881379   1.670088   2.565952
    H  -1.391560   2.785273  -0.247775
    H  -3.090802   1.040082   1.304653
    H  -2.920158   0.739010  -1.666448
    H  -3.127656  -1.645515   0.187569
    C   1.029218   0.158205  -1.547328
    C  -0.534936   0.748859  -1.506619
