36
B16C2H18
    B   2.110015  -0.802989  -0.602364
    B   2.100086  -0.123303   1.008270
    B   2.123826   0.944728  -0.390234
    B   0.639007  -0.103720   1.904797
    B   1.064175  -1.534996   0.726045
    B   0.647598  -1.571202  -1.079001
    B   1.213731   0.169428  -1.722764
    B   1.049496   1.417962   0.960158
    B   0.643399   1.659236  -0.856917
    B  -1.071449  -0.776326   1.535956
    B  -0.639501   0.999261   1.625939
    B  -1.054675   1.673749  -0.051991
    B  -0.612891  -1.847680   0.090531
    B  -2.110151  -0.994146   0.112277
    B  -2.141396   0.455878  -0.862654
    B  -2.123043   0.591755   0.852646
    H   3.080032   1.601356  -0.614357
    H   3.045472  -1.355411  -1.073577
    H   3.082099  -0.242865   1.654574
    H   0.727178   2.676432  -1.451206
    H   1.395353   2.404775   1.510844
    H   0.880825  -0.212909   3.058263
    H   1.413872  -2.541103   1.240327
    H   0.761397  -2.485689  -1.816081
    H   1.400927   0.224193  -2.885467
    H  -0.833017   1.090539  -2.468937
    H  -1.370405  -1.285200  -2.189369
    H  -0.917781  -2.983192  -0.032484
    H  -1.446042  -1.373234   2.485098
    H  -0.884161   1.662288   2.575376
    H  -1.401959   2.785562  -0.230519
    H  -3.115127   1.011057   1.337815
    H  -2.997472   0.667434  -1.641971
    H  -3.064788  -1.681774   0.045528
    C  -0.573328   0.719586  -1.485865
    C  -1.020401  -0.838610  -1.268809
