36
B16C2H18
    B   2.112558  -0.762885  -0.632600
    B   2.160701  -0.185247   1.026277
    B   2.166049   0.971917  -0.317145
    B   0.677181  -0.092793   1.883828
    B   1.038840  -1.519852   0.713130
    B   0.590135  -1.471086  -1.112555
    B   1.219326   0.263499  -1.667267
    B   1.241488   1.375401   1.082566
    B   0.616278   1.683110  -0.721367
    B  -1.032138  -0.755921   1.521268
    B  -0.556228   1.059668   1.499221
    B  -0.554642   0.719099  -1.638096
    B  -0.635975  -1.871716   0.084407
    B  -2.134529  -1.036761   0.155675
    B  -2.131561   0.353944  -0.910490
    B  -2.098440   0.581240   0.812452
    H   3.087890   1.666779  -0.571528
    H   3.011724  -1.359034  -1.115750
    H   3.128017  -0.392499   1.671514
    H   0.639906   2.763779  -1.198344
    H   1.535885   2.363274   1.659708
    H   0.798218  -0.159158   3.060420
    H   1.346902  -2.548428   1.209108
    H   0.718103  -2.371360  -1.865226
    H   1.516038   0.337925  -2.809342
    H  -0.917467   1.176631  -2.662530
    H  -1.486893  -1.463463  -2.117524
    H  -0.899417  -3.019618  -0.005852
    H  -1.417459  -1.284269   2.504931
    H  -0.890511   1.850794   2.309466
    H  -1.469399   2.496799  -0.266930
    H  -3.033235   1.123967   1.281287
    H  -3.038870   0.636683  -1.601344
    H  -3.105360  -1.703314   0.163092
    C  -1.111830  -0.912129  -1.261038
    C  -1.090386   1.485894  -0.163546
