36
B16C2H18
    B   2.068119  -0.796326  -0.589823
    B   2.095615  -0.114009   1.007553
    B   2.088812   0.941305  -0.386761
    B   0.638838  -0.105990   1.907642
    B   1.049472  -1.530560   0.739346
    B   0.599436  -1.589443  -1.056306
    B   1.055340   1.425540   0.981949
    B   0.631639   1.746357  -0.790212
    B  -1.064235  -0.789776   1.525266
    B  -0.643067   0.990541   1.633571
    B  -1.038154   1.668678  -0.062155
    B  -0.650494  -1.892739   0.074464
    B  -1.154237  -1.024118  -1.393736
    B  -2.133297  -1.012968   0.108874
    B  -2.072527   0.401609  -0.910592
    B  -2.106540   0.589134   0.828241
    H   3.035806   1.537475  -0.757715
    H   2.996713  -1.241385  -1.165394
    H   3.100890  -0.231591   1.616979
    H   0.828581   2.704552  -1.448202
    H   1.426780   2.405581   1.529290
    H   0.892187  -0.205900   3.059630
    H   1.445089  -2.523415   1.242931
    H   0.899984  -2.418392  -1.840738
    H   1.348426   0.228865  -2.578839
    H  -0.718307   1.196794  -2.471190
    H  -1.436929  -1.425255  -2.466453
    H  -0.843950  -3.062769   0.068376
    H  -1.424192  -1.369283   2.490735
    H  -0.885964   1.668222   2.573052
    H  -1.388525   2.781704  -0.243629
    H  -3.091208   1.037666   1.302133
    H  -2.916342   0.743379  -1.661413
    H  -3.130973  -1.640637   0.185114
    C   1.030079   0.159667  -1.547652
    C  -0.531966   0.748357  -1.504457
