36
B16C2H18
    B   2.095329  -0.807160  -0.602682
    B   2.099918  -0.118763   1.009079
    B   2.104325   0.934480  -0.390035
    B   0.642366  -0.106477   1.903307
    B   1.033364  -1.539109   0.748626
    B   0.634567  -1.580255  -1.060528
    B   1.077560   0.145230  -1.715234
    B   1.043414   1.415999   0.965466
    B   0.638273   1.694265  -0.852815
    B  -0.974012  -0.804520   1.536458
    B  -0.634153   1.006552   1.635981
    B  -1.037237   1.705126  -0.115510
    B  -0.623378   0.888823  -1.708951
    B  -0.636766  -1.917205   0.035400
    B  -1.036886  -0.921655  -1.450511
    B  -2.072103   0.430522  -0.938137
    H   3.077285   1.568879  -0.607350
    H   3.063096  -1.343246  -1.017734
    H   3.065112  -0.238017   1.679463
    H   0.841061   2.768010  -1.310080
    H   1.374189   2.386812   1.554776
    H   0.854272  -0.213739   3.064154
    H   1.361737  -2.530802   1.302923
    H   0.864426  -2.543039  -1.710545
    H   1.433388   0.155198  -2.842914
    H  -0.924243   1.404342  -2.731370
    H  -1.572543  -1.504072  -2.326787
    H  -1.005724  -3.035189   0.123522
    H  -1.548062  -1.336240   2.417147
    H  -0.994676   1.643038   2.562284
    H  -1.530996   2.772718  -0.028061
    H  -2.860893   0.814695   1.191828
    H  -3.153104   0.607563  -1.367758
    H  -2.859898  -1.430359   0.216878
    C  -1.917114   0.541587   0.744158
    C  -1.920993  -0.913123   0.085428
