36
B16C2H18
    B   2.078658  -0.798785  -0.588747
    B   2.099616  -0.118100   1.009413
    B   2.091669   0.940154  -0.383046
    B   0.636011  -0.113054   1.898942
    B   1.061740  -1.535168   0.733089
    B   0.601249  -1.578143  -1.058793
    B   1.063196   1.421056   0.987604
    B   0.629006   1.736782  -0.788300
    B  -1.074167  -0.780653   1.526296
    B  -0.640230   0.994762   1.623577
    B  -1.052236   1.672267  -0.064860
    B  -0.644718  -1.885352   0.081331
    B  -1.152785  -1.025344  -1.389862
    B  -2.133812  -1.013087   0.109487
    B  -2.080142   0.401338  -0.913760
    B  -2.110819   0.589692   0.827095
    H   3.031015   1.544795  -0.759890
    H   3.000691  -1.242589  -1.175574
    H   3.100863  -0.235063   1.625639
    H   0.828926   2.699995  -1.438363
    H   1.435756   2.396552   1.541648
    H   0.882653  -0.215318   3.052452
    H   1.450831  -2.529678   1.238190
    H   0.899016  -2.412329  -1.839029
    H   1.346187   0.227902  -2.579577
    H  -0.721126   1.198246  -2.473313
    H  -1.439900  -1.428512  -2.460820
    H  -0.835999  -3.055829   0.077564
    H  -1.432420  -1.355205   2.495395
    H  -0.880951   1.671725   2.564280
    H  -1.389703   2.788799  -0.247652
    H  -3.092283   1.039621   1.306551
    H  -2.921208   0.735941  -1.670822
    H  -3.127370  -1.647285   0.186445
    C   1.030307   0.158942  -1.547509
    C  -0.536622   0.751793  -1.505205
