36
B16C2H18
    B   2.067711  -0.796060  -0.589470
    B   2.095335  -0.113792   1.007613
    B   2.089137   0.941384  -0.386502
    B   0.639111  -0.105113   1.907920
    B   1.047941  -1.529696   0.739807
    B   0.599104  -1.589185  -1.056619
    B   1.054461   1.425871   0.981562
    B   0.631987   1.745562  -0.791637
    B  -1.062656  -0.790374   1.524467
    B  -0.643348   0.990364   1.634173
    B  -1.037335   1.668168  -0.061416
    B  -0.650855  -1.893081   0.073716
    B  -1.154240  -1.023995  -1.393678
    B  -2.133230  -1.013145   0.108392
    B  -2.072932   0.401839  -0.910501
    B  -2.106214   0.588577   0.828453
    H   3.035816   1.538007  -0.757484
    H   2.995994  -1.242090  -1.164787
    H   3.100550  -0.231783   1.617035
    H   0.828935   2.704418  -1.448627
    H   1.425958   2.405630   1.529331
    H   0.892664  -0.204811   3.059866
    H   1.443409  -2.522373   1.243886
    H   0.900481  -2.418186  -1.840640
    H   1.348950   0.228348  -2.579169
    H  -0.718866   1.196445  -2.471693
    H  -1.437960  -1.425089  -2.466175
    H  -0.843750  -3.063163   0.067613
    H  -1.422334  -1.370006   2.490014
    H  -0.886638   1.668211   2.573395
    H  -1.386703   2.781639  -0.242082
    H  -3.090749   1.037243   1.302474
    H  -2.916744   0.743573  -1.661284
    H  -3.131005  -1.640622   0.184910
    C   1.030706   0.159935  -1.548017
    C  -0.531790   0.748218  -1.504968
