36
B16C2H18
    B   2.059900  -0.763046  -0.575543
    B   2.157165  -0.194800   1.056803
    B   2.183061   0.974531  -0.293919
    B   0.698244  -0.003226   1.943393
    B   0.904198  -1.441569   0.773937
    B   0.471610  -1.266213  -1.256749
    B   1.268747   0.340245  -1.641669
    B   1.340544   1.402949   1.163032
    B   0.579255   1.682406  -0.580182
    B  -0.891820  -0.818918   1.446169
    B  -0.464233   1.200838   1.318029
    B  -0.532669   0.576934  -1.656254
    B  -0.667949  -1.933483  -0.009239
    B  -2.141021  -1.063075   0.191004
    B  -2.159072   0.307486  -0.929324
    B  -2.049098   0.544643   0.812696
    H   3.128369   1.630279  -0.566648
    H   2.902763  -1.464480  -1.015425
    H   3.125111  -0.475672   1.674371
    H   0.626992   2.786171  -1.001199
    H   1.725773   2.320366   1.798685
    H   0.711953  -0.056311   3.124017
    H   1.217490  -2.483741   1.237839
    H   0.681269  -2.109186  -2.060601
    H   1.655605   0.495956  -2.746990
    H  -0.826207   0.996479  -2.718376
    H  -1.653614  -1.578556  -2.118406
    H  -0.809045  -3.101710  -0.067805
    H  -1.265561  -1.323104   2.447361
    H  -0.822817   2.036747   2.075465
    H  -1.565892   2.445456  -0.405280
    H  -2.955793   1.035678   1.380937
    H  -3.100961   0.592100  -1.572813
    H  -3.113355  -1.718085   0.308050
    C  -1.252272  -1.027935  -1.277356
    C  -1.165769   1.454717  -0.258131
