36
B16C2H18
    B   2.037504  -0.775267  -0.551868
    B   2.148927  -0.195449   1.067459
    B   2.193939   0.967619  -0.285594
    B   0.689744   0.025031   1.963744
    B   0.852806  -1.413731   0.808848
    B   0.443592  -1.212708  -1.305496
    B   1.272544   0.352095  -1.619152
    B   1.356423   1.400752   1.176241
    B   0.584434   1.695082  -0.549352
    B  -0.835614  -0.851961   1.423777
    B  -0.434511   1.265933   1.288078
    B  -0.519668   0.567208  -1.669788
    B  -0.661451  -1.965121  -0.044786
    B  -2.129757  -1.083680   0.206458
    B  -2.156918   0.286699  -0.923843
    B  -2.015620   0.524604   0.824905
    H   3.144857   1.609336  -0.570613
    H   2.853635  -1.507073  -0.991440
    H   3.112700  -0.494026   1.683810
    H   0.617417   2.801786  -0.962121
    H   1.760463   2.309995   1.813344
    H   0.677522  -0.005995   3.144665
    H   1.163537  -2.456896   1.275643
    H   0.663852  -2.030713  -2.132515
    H   1.676089   0.521671  -2.717694
    H  -0.834591   0.970189  -2.731525
    H  -1.686212  -1.605583  -2.111952
    H  -0.781756  -3.132926  -0.136329
    H  -1.219392  -1.358285   2.421896
    H  -0.815399   2.130167   1.999753
    H  -1.587703   2.417433  -0.437558
    H  -2.912358   1.008805   1.414107
    H  -3.107443   0.581754  -1.550447
    H  -3.107370  -1.728783   0.335299
    C  -1.275579  -1.051053  -1.281211
    C  -1.167743   1.433963  -0.274864
