36
B16C2H18
    B   2.088863  -0.806232  -0.598146
    B   2.095279  -0.113869   1.009589
    B   2.103244   0.934399  -0.390990
    B   0.648902  -0.094019   1.915851
    B   1.014961  -1.530868   0.757471
    B   0.630286  -1.577045  -1.066149
    B   1.083389   0.147009  -1.715864
    B   1.044195   1.420522   0.965678
    B   0.640056   1.694803  -0.859941
    B  -0.955365  -0.816395   1.533182
    B  -0.635269   1.004988   1.637558
    B  -1.033607   1.702402  -0.114583
    B  -0.620631   0.882586  -1.710127
    B  -0.642451  -1.918848   0.027265
    B  -1.043237  -0.924786  -1.454705
    B  -2.072282   0.429612  -0.937245
    H   3.080324   1.563317  -0.606276
    H   3.056576  -1.349094  -1.004475
    H   3.065349  -0.240738   1.672066
    H   0.839165   2.771050  -1.312316
    H   1.373518   2.394598   1.550366
    H   0.858070  -0.204449   3.076480
    H   1.350752  -2.522967   1.306962
    H   0.866654  -2.538075  -1.716347
    H   1.442919   0.155658  -2.842452
    H  -0.922918   1.400129  -2.731383
    H  -1.581181  -1.504072  -2.331567
    H  -1.007287  -3.038577   0.109942
    H  -1.528305  -1.348569   2.414415
    H  -1.002099   1.640039   2.562611
    H  -1.526366   2.770387  -0.026583
    H  -2.856581   0.810285   1.194669
    H  -3.152712   0.614171  -1.365184
    H  -2.863235  -1.429640   0.221890
    C  -1.914168   0.538236   0.743022
    C  -1.923906  -0.915077   0.085194
