36
B16C2H18
    B   2.089307  -0.802132  -0.592097
    B   2.103259  -0.119310   1.004698
    B   2.089806   0.928660  -0.389293
    B   0.632757  -0.120684   1.896571
    B   1.073786  -1.540630   0.726965
    B   0.613103  -1.569138  -1.055487
    B   1.063992   1.410558   0.975810
    B   0.616846   1.684195  -0.800357
    B  -1.081556  -0.774170   1.531010
    B  -0.636834   1.008621   1.616471
    B  -1.067713   1.684156  -0.076225
    B  -0.637432  -1.887408   0.076635
    B  -1.087314  -0.961095  -1.412442
    B  -2.115889  -1.005114   0.103025
    B  -2.078820   0.407620  -0.910380
    B  -2.109977   0.590655   0.828038
    H   3.025810   1.552924  -0.735580
    H   3.025300  -1.270469  -1.133809
    H   3.106245  -0.222752   1.617807
    H   0.835327   2.671500  -1.407011
    H   1.439932   2.394890   1.508801
    H   0.883909  -0.218192   3.048485
    H   1.465682  -2.536333   1.225394
    H   0.896553  -2.431542  -1.808887
    H   1.301053   0.198483  -2.587529
    H  -0.732807   1.234345  -2.486733
    H  -1.407214  -1.403306  -2.457218
    H  -0.855527  -3.050054   0.082318
    H  -1.453537  -1.347794   2.494047
    H  -0.873066   1.685985   2.556617
    H  -1.402500   2.806430  -0.203925
    H  -3.095130   1.031732   1.305369
    H  -2.962910   0.688057  -1.638607
    H  -3.104272  -1.646968   0.155379
    C   1.017107   0.133524  -1.546976
    C  -0.576376   0.795630  -1.511005
