36
B16C2H18
    B   2.112903  -0.767334  -0.631909
    B   2.152227  -0.172199   1.020812
    B   2.153984   0.966134  -0.325786
    B   0.669947  -0.105973   1.883180
    B   1.051242  -1.530692   0.713335
    B   0.599574  -1.498991  -1.085207
    B   1.178877   0.230136  -1.674410
    B   1.196621   1.381063   1.054761
    B   0.623015   1.677356  -0.753223
    B  -1.043731  -0.755656   1.520828
    B  -0.570177   1.044247   1.529254
    B  -0.565677   0.759268  -1.646006
    B  -0.633557  -1.872393   0.089468
    B  -2.119646  -1.026646   0.140053
    B  -2.109929   0.360691  -0.904138
    B  -2.090791   0.581186   0.803068
    H   3.081296   1.655060  -0.569557
    H   3.026545  -1.332832  -1.121384
    H   3.122125  -0.356594   1.667038
    H   0.674616   2.753784  -1.235275
    H   1.493264   2.370886   1.626017
    H   0.819218  -0.178080   3.054897
    H   1.362234  -2.555612   1.211358
    H   0.730186  -2.408923  -1.824527
    H   1.475670   0.294327  -2.816333
    H  -0.922404   1.235118  -2.661771
    H  -1.455421  -1.425628  -2.128711
    H  -0.908313  -3.017623   0.020606
    H  -1.443293  -1.290198   2.494071
    H  -0.896350   1.815202   2.359815
    H  -1.448086   2.503313  -0.234421
    H  -3.038939   1.106859   1.261994
    H  -3.027548   0.634282  -1.583543
    H  -3.096267  -1.682446   0.151371
    C  -1.083703  -0.888796  -1.268602
    C  -1.068811   1.498575  -0.137244
