36
B16C2H18
    B   2.111569  -0.802370  -0.600589
    B   2.094155  -0.119022   1.006459
    B   2.122995   0.946836  -0.391741
    B   0.637686  -0.106126   1.908937
    B   1.063180  -1.534034   0.726706
    B   0.647252  -1.568075  -1.079236
    B   1.218755   0.168122  -1.727280
    B   1.030478   1.421082   0.950517
    B   0.647214   1.657613  -0.871777
    B  -1.070465  -0.779946   1.538577
    B  -0.645419   0.991347   1.642950
    B  -1.036045   1.673453  -0.038720
    B  -0.614106  -1.848243   0.088487
    B  -2.110968  -0.993326   0.112251
    B  -2.132566   0.460133  -0.858045
    B  -2.120893   0.592178   0.856778
    H   3.080893   1.602810  -0.610106
    H   3.046918  -1.355724  -1.070864
    H   3.075609  -0.231632   1.654985
    H   0.728021   2.672495  -1.470430
    H   1.375383   2.410448   1.497587
    H   0.889301  -0.213191   3.060509
    H   1.413002  -2.540450   1.240234
    H   0.760727  -2.480792  -1.818759
    H   1.406673   0.219034  -2.890097
    H  -0.835232   1.085169  -2.471456
    H  -1.376214  -1.287524  -2.188680
    H  -0.918947  -2.983766  -0.034796
    H  -1.447065  -1.381858   2.484010
    H  -0.886808   1.653531   2.593502
    H  -1.385532   2.784266  -0.219986
    H  -3.117481   1.014072   1.330704
    H  -2.989891   0.676951  -1.634815
    H  -3.067928  -1.677388   0.042882
    C  -0.568992   0.714946  -1.490045
    C  -1.024356  -0.840145  -1.268773
