38
B17C2H19
    B   0.066104  -2.335879   0.002355
    B  -1.584909   1.451170  -0.128026
    B  -0.561760   1.568836   1.432560
    B   1.187458   1.588601   0.968331
    B   1.219231   1.531359  -0.901347
    B  -0.445488   1.685337  -1.585726
    B  -2.066134  -0.336644   0.006378
    B  -1.403853   0.243634  -1.481614
    B   0.437416   0.257710  -1.973037
    B   1.795772  -0.252845  -0.971913
    B   0.516995   0.319634   1.995749
    B   1.794004  -0.192662   0.911374
    B   1.673035  -1.671388  -0.007401
    B   0.610465  -1.524571  -1.454422
    B  -1.167904  -1.522692  -0.966672
    B   0.634646  -1.478382   1.463638
    B  -0.048171   2.350975  -0.019805
    H  -0.097725   3.530956   0.064366
    H   1.965314   2.303459   1.493498
    H  -1.048249   2.185002   2.314679
    H  -2.599127   2.032761   0.035655
    H  -0.751061   2.418698  -2.458333
    H   2.068906   2.203243  -1.374176
    H   0.659481   0.251913  -3.137112
    H   2.841298  -0.226487  -1.527266
    H  -2.227062   0.228831  -2.334502
    H  -3.213350  -0.522265   0.201464
    H  -1.830170  -0.084717   2.324562
    H   0.648235   0.363244   3.168525
    H   2.823722  -0.166410   1.500182
    H   2.580808  -2.423638   0.059260
    H   0.824382  -2.226436  -2.380998
    H  -1.915925  -2.295747  -1.450824
    H  -1.754358  -2.124848   1.363180
    H   0.681843  -2.133979   2.441110
    H  -0.098541  -3.500391   0.106834
    C  -1.102140  -1.460844   0.813996
    C  -1.147688  -0.027650   1.485477
