38
B17C2H19
    B   0.045942  -2.356386   0.003305
    B  -1.556406   1.374752  -0.000199
    B  -0.491661   1.639167   1.496956
    B   1.220091   1.567104   0.936297
    B   1.224242   1.570154  -0.935851
    B  -0.489571   1.646127  -1.505550
    B  -2.058474  -0.402795   0.004044
    B  -1.296428   0.084063  -1.528050
    B   0.496887   0.330656  -1.996054
    B   1.800806  -0.207724  -0.951201
    B   0.494617   0.324349   1.990545
    B   1.797396  -0.208754   0.951070
    B   1.613202  -1.639377   0.001870
    B   0.521500  -1.456440  -1.460865
    B  -1.244819  -1.626745  -0.899657
    B   0.525854  -1.454335   1.459725
    B  -0.038890   2.364673  -0.001719
    H  -0.083779   3.551009   0.009295
    H   2.026808   2.277557   1.436498
    H  -0.871907   2.357099   2.360247
    H  -2.557985   2.006558   0.022243
    H  -0.863036   2.383621  -2.355717
    H   2.039293   2.284319  -1.418819
    H   0.757255   0.366093  -3.154692
    H   2.865557  -0.227920  -1.478116
    H  -2.060380   0.089001  -2.436851
    H  -3.240940  -0.474098   0.029294
    H  -1.983752   0.079037   2.362446
    H   0.734963   0.358005   3.152053
    H   2.852337  -0.229955   1.496568
    H   2.536376  -2.382455   0.009049
    H   0.758754  -2.135325  -2.403627
    H  -1.940022  -2.367765  -1.507780
    H  -1.866639  -2.283816   1.488605
    H   0.749588  -2.125608   2.409993
    H   0.048981  -3.542676   0.023473
    C  -1.225162  -1.605346   0.887106
    C  -1.275096   0.081059   1.504066
