38
B17C2H19
    B   0.066460  -2.340312   0.002232
    B  -1.585993   1.492531  -0.174660
    B  -0.586202   1.564362   1.434620
    B   1.169670   1.590915   0.968928
    B   1.233414   1.519234  -0.888895
    B  -0.442475   1.676577  -1.577305
    B  -2.046261  -0.313350   0.024967
    B  -1.400502   0.250712  -1.485912
    B   0.436345   0.252440  -1.975130
    B   1.799593  -0.263163  -0.982512
    B   0.505322   0.322419   2.001829
    B   1.807372  -0.166517   0.894194
    B   1.667091  -1.659601  -0.001323
    B   0.605758  -1.535010  -1.455657
    B  -1.160089  -1.510280  -0.960186
    B   0.618160  -1.463763   1.462752
    B  -0.055607   2.357646  -0.024160
    H  -0.090179   3.537854   0.059356
    H   1.945143   2.308423   1.495886
    H  -1.093886   2.162962   2.315941
    H  -2.608354   2.061765  -0.016751
    H  -0.727675   2.411512  -2.457196
    H   2.089451   2.195022  -1.342023
    H   0.646243   0.243659  -3.141024
    H   2.844891  -0.229564  -1.536129
    H  -2.231023   0.209825  -2.328974
    H  -3.194773  -0.478978   0.230162
    H  -1.786055  -0.145344   2.368967
    H   0.656810   0.359383   3.172277
    H   2.850713  -0.140196   1.453714
    H   2.575581  -2.411144   0.069633
    H   0.817590  -2.239883  -2.379420
    H  -1.919537  -2.273357  -1.442976
    H  -1.773033  -2.150853   1.349690
    H   0.655646  -2.124358   2.436833
    H  -0.094748  -3.505941   0.094430
    C  -1.114416  -1.485918   0.809331
    C  -1.114943  -0.072826   1.524491
