38
B17C2H19
    B   0.068150  -2.339778   0.001589
    B  -1.584784   1.477553  -0.154063
    B  -0.571214   1.571604   1.439443
    B   1.179555   1.584738   0.959320
    B   1.228605   1.529388  -0.901259
    B  -0.447508   1.676818  -1.574501
    B  -2.053249  -0.324757   0.014416
    B  -1.398827   0.244647  -1.488128
    B   0.435293   0.254976  -1.971827
    B   1.796756  -0.253449  -0.971620
    B   0.505911   0.317836   1.999420
    B   1.806875  -0.181557   0.905361
    B   1.669634  -1.663161  -0.002542
    B   0.606984  -1.531790  -1.454160
    B  -1.158521  -1.513924  -0.962559
    B   0.623373  -1.473581   1.462792
    B  -0.051802   2.358806  -0.023519
    H  -0.089992   3.538980   0.058511
    H   1.958896   2.298926   1.485595
    H  -1.069928   2.175818   2.321921
    H  -2.605180   2.049603   0.006070
    H  -0.746514   2.411053  -2.450231
    H   2.080585   2.205117  -1.361443
    H   0.648246   0.243224  -3.137227
    H   2.843197  -0.217094  -1.523678
    H  -2.226270   0.210199  -2.334468
    H  -3.201346  -0.500323   0.213318
    H  -1.811907  -0.110222   2.344233
    H   0.642247   0.352754   3.171639
    H   2.844782  -0.156986   1.475658
    H   2.580422  -2.412568   0.058883
    H   0.820439  -2.234763  -2.378894
    H  -1.915236  -2.281137  -1.442848
    H  -1.764246  -2.137766   1.362519
    H   0.663704  -2.136171   2.435543
    H  -0.099348  -3.504260   0.096958
    C  -1.107602  -1.476259   0.815934
    C  -1.134679  -0.045613   1.503843
