38
B17C2H19
    B   0.064083  -2.351513  -0.000057
    B  -1.600217   1.497381  -0.215691
    B  -0.644899   1.529648   1.416266
    B   1.174469   1.593790   0.971552
    B   1.251845   1.507770  -0.867847
    B  -0.428151   1.675617  -1.569526
    B  -2.034334  -0.274674   0.057681
    B  -1.373637   0.279921  -1.468252
    B   0.426792   0.254749  -1.947501
    B   1.786815  -0.256970  -0.989428
    B   0.509516   0.333864   2.017705
    B   1.822651  -0.133043   0.851107
    B   1.645272  -1.642037   0.000532
    B   0.591541  -1.542887  -1.437844
    B  -1.147225  -1.488345  -0.943764
    B   0.599212  -1.473621   1.466291
    B  -0.058709   2.345461  -0.034404
    H  -0.076354   3.524809   0.047744
    H   1.938733   2.321129   1.497577
    H  -1.188757   2.128221   2.272742
    H  -2.619858   2.081006  -0.122214
    H  -0.686839   2.400318  -2.465448
    H   2.114065   2.173863  -1.319846
    H   0.638126   0.235427  -3.110186
    H   2.818372  -0.222280  -1.558881
    H  -2.200536   0.242400  -2.297887
    H  -3.181649  -0.423052   0.286478
    H  -1.744595  -0.202292   2.414398
    H   0.677179   0.379639   3.184566
    H   2.882679  -0.108563   1.373040
    H   2.564166  -2.382428   0.084999
    H   0.805792  -2.249302  -2.355585
    H  -1.908376  -2.250810  -1.424240
    H  -1.825168  -2.179262   1.319808
    H   0.676146  -2.152487   2.424470
    H  -0.081780  -3.519834   0.064412
    C  -1.130918  -1.508274   0.810050
    C  -1.089951  -0.136456   1.567184
