38
B17C2H19
    B   0.063672  -2.331686   0.016290
    B  -1.563762   1.409639  -0.085524
    B  -0.511117   1.603482   1.461029
    B   1.205178   1.553610   0.928018
    B   1.226757   1.578976  -0.938694
    B  -0.463976   1.667486  -1.554941
    B  -2.072571  -0.360616  -0.013710
    B  -1.317077   0.132648  -1.529493
    B   0.498049   0.328823  -2.001379
    B   1.798830  -0.206391  -0.947600
    B   0.496072   0.290291   1.982771
    B   1.803121  -0.226522   0.938186
    B   1.656280  -1.659533  -0.022378
    B   0.531757  -1.465102  -1.461681
    B  -1.213826  -1.578530  -0.905154
    B   0.669500  -1.513033   1.464442
    B  -0.042675   2.362505  -0.016726
    H  -0.099320   3.541809   0.060959
    H   1.991888   2.253471   1.463072
    H  -0.968335   2.223611   2.355009
    H  -2.589762   1.974329   0.058432
    H  -0.850916   2.401360  -2.396051
    H   2.065536   2.277820  -1.390281
    H   0.742282   0.318910  -3.159866
    H   2.862507  -0.200275  -1.468986
    H  -2.110394   0.100728  -2.408851
    H  -3.227216  -0.524989   0.154789
    H  -1.923121   0.043305   2.234132
    H   0.577458   0.300844   3.160744
    H   2.823381  -0.206703   1.542214
    H   2.562214  -2.416945  -0.032061
    H   0.730814  -2.156912  -2.398481
    H  -1.967660  -2.363009  -1.360143
    H  -1.735463  -2.082145   1.455047
    H   0.728778  -2.184338   2.430730
    H  -0.098965  -3.497391   0.114463
    C  -1.096149  -1.448753   0.856289
    C  -1.216271   0.066107   1.415384
