38
B17C2H19
    B   0.067533  -2.335590   0.005115
    B  -1.579117   1.430949  -0.103341
    B  -0.535495   1.586184   1.446849
    B   1.200292   1.568549   0.942784
    B   1.217675   1.554254  -0.924499
    B  -0.458925   1.677774  -1.570074
    B  -2.072258  -0.350159  -0.005808
    B  -1.382332   0.208152  -1.501000
    B   0.452164   0.279299  -1.976959
    B   1.794226  -0.230253  -0.952961
    B   0.510121   0.305681   1.991922
    B   1.799561  -0.214300   0.928412
    B   1.669223  -1.670123  -0.009549
    B   0.592421  -1.507443  -1.454582
    B  -1.176118  -1.538289  -0.950361
    B   0.645847  -1.495061   1.464054
    B  -0.043206   2.356310  -0.018440
    H  -0.090964   3.536291   0.061079
    H   1.986149   2.275445   1.468284
    H  -1.008647   2.206759   2.332534
    H  -2.596071   2.008848   0.054218
    H  -0.795608   2.413212  -2.430168
    H   2.060072   2.235503  -1.395894
    H   0.682262   0.268413  -3.139298
    H   2.846648  -0.203485  -1.495797
    H  -2.194159   0.189972  -2.363954
    H  -3.221310  -0.536217   0.177311
    H  -1.877363  -0.021893   2.283029
    H   0.615153   0.338071   3.167594
    H   2.824012  -0.190218   1.525787
    H   2.580324  -2.420434   0.025395
    H   0.807429  -2.204223  -2.384410
    H  -1.924251  -2.317736  -1.424330
    H  -1.744350  -2.105465   1.399221
    H   0.698639  -2.160088   2.435236
    H  -0.103571  -3.499383   0.107380
    C  -1.096269  -1.451761   0.832859
    C  -1.184238   0.019337   1.452361
