38
B17C2H19
    B   0.039491  -2.378779  -0.010489
    B  -1.690220   1.749260  -0.482540
    B  -0.851284   1.295954   1.213106
    B   1.009421   1.615270   1.031562
    B   1.233287   1.367774  -0.773177
    B  -0.421781   1.677432  -1.658830
    B  -1.789712  -0.054087   0.195837
    B  -1.542634   0.637598  -1.320917
    B   0.257839   0.057834  -1.841114
    B   1.795911  -0.420569  -1.058421
    B   0.514963   0.317610   2.007021
    B   1.853472  -0.008020   0.752965
    B   1.660987  -1.651898   0.102123
    B   0.778589  -1.718496  -1.375712
    B  -0.969107  -1.228645  -1.036423
    B   0.432876  -1.297697   1.499516
    B  -0.166689   2.353412  -0.038132
    H  -0.152603   3.515371   0.190128
    H   1.691070   2.374550   1.626778
    H  -1.532344   1.763540   2.052080
    H  -2.727112   2.289616  -0.312910
    H  -0.353656   2.332403  -2.640219
    H   2.126224   1.997294  -1.211090
    H   0.328954   0.006533  -3.019226
    H   2.785799  -0.309089  -1.686053
    H  -2.458050   0.462980  -2.024610
    H  -2.906635  -0.177961   0.561748
    H  -1.105007  -0.735632   2.524056
    H   0.817699   0.510585   3.131558
    H   2.942028   0.063350   1.194381
    H   2.526682  -2.400442   0.404134
    H   0.982631  -2.470633  -2.255720
    H  -1.797087  -1.834911  -1.618260
    H  -1.911672  -2.189273   1.061153
    H   0.406925  -1.944212   2.481372
    H  -0.120669  -3.544937   0.041934
    C  -1.134988  -1.523805   0.668450
    C  -0.588099  -0.492393   1.623941
