38
B17C2H19
    B   0.067567  -2.333193   0.011274
    B  -1.569517   1.404145  -0.075422
    B  -0.503707   1.604144   1.460445
    B   1.210864   1.545718   0.916564
    B   1.215620   1.580367  -0.950015
    B  -0.470868   1.667721  -1.554844
    B  -2.075693  -0.365663  -0.019182
    B  -1.348990   0.161120  -1.523137
    B   0.477704   0.311558  -1.987958
    B   1.794654  -0.205037  -0.935021
    B   0.500355   0.288681   1.984419
    B   1.804848  -0.240148   0.950719
    B   1.665078  -1.667133  -0.014645
    B   0.560703  -1.479449  -1.454887
    B  -1.194804  -1.563230  -0.924487
    B   0.664031  -1.514239   1.466101
    B  -0.039143   2.361359  -0.016303
    H  -0.091263   3.540910   0.059720
    H   2.003954   2.244982   1.442918
    H  -0.958633   2.226377   2.353831
    H  -2.591689   1.972853   0.078801
    H  -0.847467   2.406214  -2.396515
    H   2.049975   2.274700  -1.415914
    H   0.718227   0.298792  -3.147491
    H   2.855877  -0.186206  -1.460996
    H  -2.145602   0.138200  -2.399174
    H  -3.227945  -0.546660   0.149163
    H  -1.930409   0.052584   2.223518
    H   0.574504   0.310205   3.162639
    H   2.821028  -0.216993   1.561273
    H   2.575612  -2.418873  -0.020927
    H   0.771419  -2.169489  -2.390464
    H  -1.945552  -2.347324  -1.385837
    H  -1.727522  -2.079065   1.447229
    H   0.718731  -2.189369   2.430419
    H  -0.105619  -3.496860   0.114207
    C  -1.088405  -1.440004   0.854029
    C  -1.222421   0.075186   1.405947
