38
B17C2H19
    B   0.063747  -2.332008   0.015489
    B  -1.564713   1.410168  -0.085025
    B  -0.511091   1.604633   1.461693
    B   1.205737   1.552921   0.927958
    B   1.225360   1.578306  -0.938175
    B  -0.464524   1.666845  -1.554161
    B  -2.073673  -0.361027  -0.013781
    B  -1.319601   0.134849  -1.529526
    B   0.496528   0.327012  -1.999693
    B   1.798376  -0.205983  -0.946934
    B   0.496624   0.290735   1.984002
    B   1.803718  -0.227598   0.939194
    B   1.656674  -1.660069  -0.022462
    B   0.533438  -1.465667  -1.460420
    B  -1.213308  -1.577648  -0.906750
    B   0.669422  -1.512896   1.464604
    B  -0.042100   2.362265  -0.016170
    H  -0.097536   3.541749   0.060038
    H   1.994242   2.253107   1.459925
    H  -0.969232   2.224103   2.355554
    H  -2.590844   1.975044   0.057384
    H  -0.850090   2.401135  -2.395579
    H   2.063864   2.276459  -1.391458
    H   0.741371   0.317137  -3.158144
    H   2.861337  -0.198907  -1.469770
    H  -2.111244   0.104216  -2.410400
    H  -3.228142  -0.526722   0.154668
    H  -1.923401   0.043107   2.234841
    H   0.577226   0.303700   3.161976
    H   2.824367  -0.207103   1.542591
    H   2.562983  -2.416970  -0.032273
    H   0.734435  -2.156946  -2.397335
    H  -1.966857  -2.362179  -1.361991
    H  -1.734470  -2.083155   1.453928
    H   0.728580  -2.185755   2.429942
    H  -0.099060  -3.497545   0.114661
    C  -1.095908  -1.448447   0.855829
    C  -1.216733   0.066016   1.415769
