38
B17C2H19
    B   0.063260  -2.342410   0.000802
    B  -1.591389   1.525150  -0.204281
    B  -0.608335   1.549920   1.424267
    B   1.152915   1.597512   0.980862
    B   1.235271   1.503690  -0.873786
    B  -0.438072   1.679096  -1.586040
    B  -2.032400  -0.293269   0.044306
    B  -1.416367   0.267645  -1.483985
    B   0.428741   0.239078  -1.977395
    B   1.803221  -0.279342  -0.996263
    B   0.506942   0.327830   2.004644
    B   1.808214  -0.144261   0.880158
    B   1.664998  -1.657201   0.005265
    B   0.616948  -1.545525  -1.458217
    B  -1.154550  -1.497927  -0.964786
    B   0.605149  -1.445543   1.464481
    B  -0.061958   2.357433  -0.024406
    H  -0.087588   3.537544   0.068484
    H   1.920977   2.318696   1.513752
    H  -1.128374   2.138755   2.305294
    H  -2.613997   2.094993  -0.046927
    H  -0.693773   2.414680  -2.474493
    H   2.095784   2.178078  -1.320976
    H   0.631500   0.229807  -3.144959
    H   2.847235  -0.244524  -1.552852
    H  -2.253183   0.210137  -2.321441
    H  -3.179994  -0.449484   0.262012
    H  -1.735263  -0.208073   2.411170
    H   0.681772   0.374957   3.171702
    H   2.856953  -0.112346   1.428985
    H   2.568729  -2.412034   0.097165
    H   0.829328  -2.253844  -2.379558
    H  -1.918376  -2.251616  -1.455317
    H  -1.786114  -2.169738   1.321258
    H   0.639957  -2.103807   2.440208
    H  -0.092315  -3.509097   0.089002
    C  -1.122705  -1.500176   0.794581
    C  -1.077640  -0.117901   1.557281
