38
B17C2H19
    B   0.065861  -2.332439   0.011560
    B  -1.569015   1.411436  -0.081674
    B  -0.509068   1.604666   1.461313
    B   1.207033   1.547417   0.921482
    B   1.217925   1.576077  -0.943348
    B  -0.469670   1.665453  -1.553306
    B  -2.073983  -0.362421  -0.014743
    B  -1.342415   0.152656  -1.527627
    B   0.484223   0.314077  -1.994386
    B   1.798200  -0.206508  -0.941131
    B   0.499207   0.290404   1.985645
    B   1.805870  -0.233033   0.946317
    B   1.661242  -1.664289  -0.015379
    B   0.553458  -1.475886  -1.455095
    B  -1.200218  -1.567549  -0.920091
    B   0.662910  -1.510889   1.465640
    B  -0.040354   2.360463  -0.015879
    H  -0.090770   3.540332   0.057918
    H   1.999592   2.248574   1.446231
    H  -0.966209   2.224090   2.355577
    H  -2.592195   1.980010   0.066691
    H  -0.845165   2.405228  -2.394453
    H   2.052928   2.273135  -1.404377
    H   0.725092   0.305257  -3.153701
    H   2.859613  -0.191583  -1.466776
    H  -2.138162   0.126258  -2.404422
    H  -3.227205  -0.535446   0.155028
    H  -1.922628   0.043080   2.235836
    H   0.578840   0.311244   3.163611
    H   2.825551  -0.209062   1.550837
    H   2.569557  -2.418778  -0.020793
    H   0.763665  -2.166486  -2.390668
    H  -1.951780  -2.350537  -1.381910
    H  -1.731759  -2.085498   1.445925
    H   0.717450  -2.187509   2.428858
    H  -0.101273  -3.497150   0.112464
    C  -1.093818  -1.445270   0.852963
    C  -1.217031   0.067358   1.415863
