38
B17C2H19
    B   0.067522  -2.334421   0.009943
    B  -1.570641   1.412535  -0.082312
    B  -0.508461   1.603917   1.461127
    B   1.207420   1.547958   0.918666
    B   1.217588   1.576231  -0.946438
    B  -0.470612   1.667255  -1.554210
    B  -2.074118  -0.362084  -0.015275
    B  -1.350919   0.162378  -1.524369
    B   0.475168   0.307251  -1.989020
    B   1.796312  -0.208429  -0.937921
    B   0.501368   0.291216   1.986214
    B   1.805937  -0.233232   0.946294
    B   1.663927  -1.666439  -0.012684
    B   0.563631  -1.483828  -1.456430
    B  -1.191539  -1.559566  -0.927365
    B   0.658543  -1.509741   1.465416
    B  -0.040614   2.361707  -0.016817
    H  -0.089379   3.541530   0.058387
    H   1.999424   2.248315   1.445577
    H  -0.968079   2.223516   2.353984
    H  -2.592764   1.981763   0.071345
    H  -0.841229   2.406539  -2.397923
    H   2.053334   2.270739  -1.409377
    H   0.712410   0.295107  -3.149306
    H   2.857637  -0.186640  -1.463621
    H  -2.149970   0.135961  -2.398220
    H  -3.226227  -0.540740   0.155842
    H  -1.920056   0.039869   2.237179
    H   0.581164   0.310808   3.164142
    H   2.825415  -0.210657   1.551178
    H   2.574803  -2.417816  -0.013997
    H   0.775260  -2.174965  -2.390967
    H  -1.943241  -2.341781  -1.390905
    H  -1.731979  -2.085649   1.442002
    H   0.711337  -2.184583   2.430043
    H  -0.106093  -3.498129   0.110764
    C  -1.091591  -1.444959   0.852478
    C  -1.215187   0.065948   1.416577
