38
B17C2H19
    B   0.059478  -2.339089   0.010884
    B  -1.555991   1.406867  -0.084536
    B  -0.507971   1.617313   1.471447
    B   1.207235   1.559744   0.937600
    B   1.232220   1.575007  -0.929430
    B  -0.464986   1.661359  -1.546347
    B  -2.075921  -0.361823  -0.012254
    B  -1.296665   0.110223  -1.537357
    B   0.511049   0.339547  -2.000459
    B   1.800357  -0.208344  -0.956054
    B   0.502804   0.303561   1.990454
    B   1.801010  -0.216076   0.931197
    B   1.644941  -1.654199  -0.024629
    B   0.512895  -1.454220  -1.464548
    B  -1.230042  -1.590498  -0.899946
    B   0.653356  -1.497992   1.459496
    B  -0.043232   2.359689  -0.012031
    H  -0.102443   3.540225   0.049539
    H   1.998584   2.265958   1.457671
    H  -0.986187   2.221581   2.364857
    H  -2.587523   1.963053   0.053247
    H  -0.858056   2.395692  -2.384449
    H   2.070447   2.275919  -1.379248
    H   0.763323   0.338009  -3.157427
    H   2.863141  -0.214764  -1.479224
    H  -2.076628   0.087052  -2.428868
    H  -3.231342  -0.514211   0.160505
    H  -1.910435   0.038317   2.237508
    H   0.587623   0.308362   3.168235
    H   2.828866  -0.208733   1.522629
    H   2.552641  -2.409615  -0.032810
    H   0.718110  -2.139902  -2.404928
    H  -1.986821  -2.376398  -1.347484
    H  -1.741559  -2.094512   1.453261
    H   0.714803  -2.171882   2.424173
    H  -0.091211  -3.505143   0.119233
    C  -1.105545  -1.459039   0.852860
    C  -1.204824   0.055844   1.417232
