38
B17C2H19
    B   0.077143  -2.332431   0.015437
    B  -1.572327   1.417559  -0.116538
    B  -0.505151   1.608654   1.466093
    B   1.194612   1.522289   0.889491
    B   1.225179   1.582129  -0.966957
    B  -0.482154   1.650957  -1.539145
    B  -2.060713  -0.353468  -0.015596
    B  -1.351548   0.178700  -1.516808
    B   0.476495   0.316749  -1.985631
    B   1.794805  -0.208644  -0.924956
    B   0.486808   0.282358   1.984683
    B   1.818856  -0.245286   0.952268
    B   1.667519  -1.663336  -0.003544
    B   0.566198  -1.488557  -1.451641
    B  -1.167974  -1.536944  -0.912228
    B   0.666872  -1.519679   1.470189
    B  -0.048931   2.367923  -0.025838
    H  -0.085113   3.546593   0.045831
    H   1.991641   2.218683   1.417919
    H  -0.967657   2.228471   2.355954
    H  -2.604238   1.965641   0.044796
    H  -0.853698   2.397118  -2.379494
    H   2.059992   2.283336  -1.414880
    H   0.702085   0.299693  -3.146565
    H   2.860131  -0.177286  -1.438658
    H  -2.160070   0.144519  -2.375766
    H  -3.214089  -0.531711   0.151029
    H  -1.933926   0.047451   2.235397
    H   0.560916   0.289732   3.162175
    H   2.842558  -0.224762   1.542984
    H   2.585158  -2.406674  -0.030061
    H   0.775679  -2.176597  -2.387008
    H  -1.924783  -2.317129  -1.374550
    H  -1.725929  -2.089494   1.451220
    H   0.697570  -2.201345   2.430592
    H  -0.117067  -3.493408   0.099387
    C  -1.084376  -1.444977   0.868038
    C  -1.224973   0.070054   1.422380
