38
B17C2H19
    B   0.064133  -2.336405   0.006196
    B  -1.576134   1.440688  -0.110554
    B  -0.543207   1.585381   1.447064
    B   1.193759   1.577152   0.954883
    B   1.223279   1.547130  -0.912155
    B  -0.453105   1.678636  -1.571291
    B  -2.068656  -0.345687   0.001046
    B  -1.370425   0.194871  -1.508005
    B   0.461240   0.283583  -1.987031
    B   1.799146  -0.235434  -0.965337
    B   0.510877   0.311437   1.992830
    B   1.798061  -0.199814   0.918825
    B   1.663424  -1.665314  -0.012214
    B   0.579580  -1.503144  -1.459468
    B  -1.187776  -1.547251  -0.945393
    B   0.639709  -1.485350   1.462436
    B  -0.045670   2.355320  -0.017511
    H  -0.095976   3.535486   0.061310
    H   1.975627   2.287579   1.481508
    H  -1.022493   2.198459   2.334836
    H  -2.594699   2.016955   0.043475
    H  -0.787741   2.414842  -2.431447
    H   2.068803   2.230775  -1.375212
    H   0.692204   0.279053  -3.149120
    H   2.852190  -0.216331  -1.507178
    H  -2.180610   0.171711  -2.373024
    H  -3.219140  -0.518919   0.187441
    H  -1.858643  -0.042045   2.298173
    H   0.627072   0.341166   3.167673
    H   2.826547  -0.178553   1.509502
    H   2.570503  -2.420139   0.029520
    H   0.790173  -2.201689  -2.389247
    H  -1.938845  -2.323686  -1.419006
    H  -1.751449  -2.115078   1.397922
    H   0.693236  -2.148154   2.434930
    H  -0.095414  -3.501747   0.110252
    C  -1.104592  -1.462371   0.828754
    C  -1.169490   0.003770   1.464618
