38
B17C2H19
    B   0.063714  -2.332596   0.013413
    B  -1.566264   1.409971  -0.082565
    B  -0.510207   1.606223   1.463132
    B   1.206738   1.550659   0.926278
    B   1.221711   1.576500  -0.938376
    B  -0.467043   1.664977  -1.552096
    B  -2.074799  -0.362091  -0.014131
    B  -1.327162   0.140532  -1.530373
    B   0.493141   0.322209  -1.996668
    B   1.798063  -0.205914  -0.945381
    B   0.498164   0.292209   1.986046
    B   1.804578  -0.229383   0.941286
    B   1.656853  -1.661185  -0.019888
    B   0.539784  -1.468270  -1.456830
    B  -1.210160  -1.574830  -0.911726
    B   0.665214  -1.510652   1.464534
    B  -0.041168   2.360526  -0.014852
    H  -0.093947   3.540401   0.057396
    H   1.998874   2.252304   1.450844
    H  -0.969515   2.224642   2.356928
    H  -2.591750   1.976118   0.059302
    H  -0.848483   2.401998  -2.393032
    H   2.058086   2.274449  -1.395884
    H   0.738473   0.314159  -3.155136
    H   2.859627  -0.197337  -1.470914
    H  -2.117554   0.114031  -2.412045
    H  -3.229046  -0.529450   0.154257
    H  -1.922410   0.043172   2.237463
    H   0.579082   0.309799   3.163883
    H   2.826194  -0.207949   1.542679
    H   2.564311  -2.416650  -0.028069
    H   0.746873  -2.158427  -2.393504
    H  -1.962223  -2.359140  -1.369879
    H  -1.734164  -2.086886   1.449819
    H   0.723831  -2.186535   2.427950
    H  -0.098335  -3.497995   0.114256
    C  -1.096872  -1.448331   0.854503
    C  -1.216712   0.065626   1.417380
