38
B17C2H19
    B   0.058057  -2.351826  -0.003853
    B  -1.616790   1.609832  -0.294415
    B  -0.683320   1.491379   1.379215
    B   1.116574   1.602879   0.992868
    B   1.240477   1.457624  -0.844756
    B  -0.421909   1.680561  -1.610223
    B  -1.986074  -0.224075   0.099538
    B  -1.470453   0.371261  -1.446422
    B   0.378076   0.176810  -1.949597
    B   1.802345  -0.320467  -1.016152
    B   0.510498   0.338805   2.011388
    B   1.824308  -0.096911   0.843446
    B   1.662416  -1.653407   0.034050
    B   0.670219  -1.598951  -1.436762
    B  -1.101187  -1.426943  -0.992523
    B   0.553672  -1.408043   1.475942
    B  -0.076730   2.355812  -0.034680
    H  -0.074365   3.533207   0.091163
    H   1.865202   2.334516   1.539396
    H  -1.242950   2.054152   2.251775
    H  -2.636050   2.187185  -0.142125
    H  -0.572956   2.405576  -2.530895
    H   2.113359   2.116285  -1.288074
    H   0.544670   0.153227  -3.121540
    H   2.832865  -0.261377  -1.591529
    H  -2.331433   0.275211  -2.247615
    H  -3.127507  -0.369755   0.358536
    H  -1.593442  -0.372508   2.488726
    H   0.734498   0.431744   3.167067
    H   2.886589  -0.051233   1.359558
    H   2.558040  -2.408801   0.188945
    H   0.884381  -2.320385  -2.345143
    H  -1.878321  -2.144895  -1.514605
    H  -1.826727  -2.207830   1.237762
    H   0.576233  -2.069533   2.449248
    H  -0.096076  -3.519095   0.069748
    C  -1.133376  -1.526826   0.756469
    C  -0.977315  -0.236319   1.616067
