38
B17C2H19
    B   0.060520  -2.344953   0.002673
    B  -1.551198   1.408060  -0.066942
    B  -0.499119   1.630085   1.473000
    B   1.211449   1.564411   0.935564
    B   1.233370   1.574891  -0.931880
    B  -0.467084   1.660377  -1.543939
    B  -2.057183  -0.366432  -0.008468
    B  -1.291032   0.099693  -1.541819
    B   0.510033   0.340931  -2.002508
    B   1.802833  -0.207378  -0.956067
    B   0.503177   0.309292   1.987319
    B   1.803839  -0.212933   0.933187
    B   1.641212  -1.650616  -0.023274
    B   0.516380  -1.452848  -1.471262
    B  -1.231713  -1.602067  -0.906899
    B   0.618125  -1.480126   1.453069
    B  -0.041389   2.365360  -0.013669
    H  -0.113169   3.545159   0.049774
    H   1.998741   2.267449   1.466628
    H  -0.978838   2.223510   2.372859
    H  -2.589890   1.950328   0.067697
    H  -0.869372   2.390532  -2.381029
    H   2.069424   2.279084  -1.381175
    H   0.759705   0.345231  -3.159916
    H   2.868182  -0.215067  -1.473647
    H  -2.079416   0.077930  -2.425784
    H  -3.214855  -0.506253   0.162714
    H  -1.892353   0.034311   2.229713
    H   0.591021   0.316917   3.164905
    H   2.824524  -0.223202   1.535741
    H   2.540959  -2.415358  -0.020431
    H   0.714347  -2.144873  -2.408706
    H  -2.000228  -2.377983  -1.351190
    H  -1.746398  -2.095687   1.451726
    H   0.691280  -2.156555   2.415670
    H  -0.073737  -3.511839   0.124610
    C  -1.108039  -1.478048   0.834651
    C  -1.188611   0.065552   1.407106
