38
B17C2H19
    B   0.063345  -2.338868  -0.005649
    B  -1.597923   1.448618  -0.166776
    B  -0.603574   1.548692   1.422035
    B   1.184719   1.598617   0.970248
    B   1.238307   1.520165  -0.885655
    B  -0.446711   1.675976  -1.578087
    B  -2.062866  -0.303269   0.027190
    B  -1.424374   0.277247  -1.450155
    B   0.425409   0.259449  -1.938124
    B   1.795171  -0.274030  -0.978220
    B   0.529313   0.330321   2.007705
    B   1.805819  -0.165554   0.878264
    B   1.660966  -1.666827   0.002503
    B   0.628660  -1.531301  -1.455873
    B  -1.155461  -1.492320  -0.949679
    B   0.617634  -1.457137   1.454691
    B  -0.048893   2.341861  -0.023772
    H  -0.073772   3.521827   0.051888
    H   1.953477   2.317270   1.497261
    H  -1.124561   2.170024   2.281057
    H  -2.614696   2.032844  -0.043864
    H  -0.715187   2.402595  -2.468884
    H   2.092710   2.182950  -1.365195
    H   0.650802   0.252584  -3.101900
    H   2.832965  -0.255804  -1.541994
    H  -2.246026   0.262954  -2.300688
    H  -3.212244  -0.467623   0.231344
    H  -1.799783  -0.163778   2.380227
    H   0.696343   0.378443   3.176232
    H   2.847698  -0.139549   1.441240
    H   2.571233  -2.415501   0.092265
    H   0.852106  -2.229823  -2.381982
    H  -1.899315  -2.269905  -1.440088
    H  -1.794096  -2.156132   1.320248
    H   0.687247  -2.109750   2.433963
    H  -0.093689  -3.506271   0.074169
    C  -1.121093  -1.481027   0.803164
    C  -1.134162  -0.091085   1.530892
