38
B17C2H19
    B   0.067739  -2.335170   0.009053
    B  -1.571721   1.413919  -0.084153
    B  -0.511577   1.602025   1.460102
    B   1.207792   1.550429   0.921146
    B   1.217632   1.574290  -0.943877
    B  -0.469584   1.668891  -1.555430
    B  -2.075020  -0.360938  -0.014670
    B  -1.354947   0.168775  -1.521194
    B   0.471087   0.303313  -1.985370
    B   1.794738  -0.210507  -0.938754
    B   0.502446   0.293433   1.987515
    B   1.804679  -0.231307   0.943252
    B   1.664254  -1.666857  -0.012298
    B   0.567960  -1.487685  -1.456101
    B  -1.188724  -1.556065  -0.930781
    B   0.656283  -1.508211   1.464619
    B  -0.040363   2.361179  -0.016793
    H  -0.088050   3.541085   0.058319
    H   1.999842   2.251025   1.447360
    H  -0.973817   2.222507   2.351016
    H  -2.593017   1.984996   0.068669
    H  -0.836137   2.406911  -2.401860
    H   2.054148   2.266462  -1.408856
    H   0.708141   0.290019  -3.145902
    H   2.854614  -0.186909  -1.467325
    H  -2.155094   0.144374  -2.394117
    H  -3.226492  -0.541804   0.158107
    H  -1.915246   0.033258   2.242969
    H   0.584684   0.313839   3.165195
    H   2.825165  -0.209512   1.546568
    H   2.576417  -2.416630  -0.008867
    H   0.781118  -2.179450  -2.389815
    H  -1.939350  -2.339107  -1.394754
    H  -1.734212  -2.088146   1.435729
    H   0.710728  -2.181769   2.430055
    H  -0.106537  -3.498670   0.110074
    C  -1.091840  -1.445518   0.850318
    C  -1.212241   0.060408   1.420850
