38
B17C2H19
    B   0.067828  -2.335500   0.008611
    B  -1.572284   1.414621  -0.085074
    B  -0.513320   1.600937   1.459496
    B   1.208036   1.551741   0.922600
    B   1.217615   1.573240  -0.942387
    B  -0.469008   1.669767  -1.556090
    B  -2.075529  -0.360314  -0.014353
    B  -1.356951   0.172061  -1.519500
    B   0.469063   0.301321  -1.983473
    B   1.793876  -0.211560  -0.939269
    B   0.502942   0.294591   1.988195
    B   1.803950  -0.230293   0.941585
    B   1.664366  -1.667039  -0.012166
    B   0.570108  -1.489595  -1.455844
    B  -1.187390  -1.554362  -0.932460
    B   0.655198  -1.507452   1.464180
    B  -0.040182   2.360834  -0.016749
    H  -0.087317   3.540785   0.058317
    H   2.000136   2.252448   1.448404
    H  -0.976855   2.221991   2.349360
    H  -2.593103   1.986802   0.067069
    H  -0.833503   2.407045  -2.403960
    H   2.054506   2.264173  -1.408513
    H   0.706163   0.287454  -3.144100
    H   2.852928  -0.187166  -1.469477
    H  -2.157649   0.148810  -2.391960
    H  -3.226671  -0.542283   0.159304
    H  -1.912779   0.029763   2.246111
    H   0.586489   0.315517   3.165743
    H   2.824962  -0.208861   1.544094
    H   2.577159  -2.416015  -0.006217
    H   0.784074  -2.181707  -2.389119
    H  -1.937381  -2.337942  -1.396588
    H  -1.735384  -2.089358   1.432266
    H   0.710735  -2.180342   2.430018
    H  -0.106609  -3.498919   0.109732
    C  -1.091997  -1.445754   0.849109
    C  -1.210722   0.057441   1.423105
