38
B17C2H19
    B   0.065356  -2.332298   0.011170
    B  -1.568941   1.410760  -0.081104
    B  -0.509391   1.605441   1.462049
    B   1.207514   1.546868   0.922043
    B   1.217150   1.575268  -0.941851
    B  -0.470095   1.664192  -1.552022
    B  -2.074748  -0.362645  -0.014718
    B  -1.341804   0.152093  -1.528072
    B   0.485658   0.314462  -1.993801
    B   1.798249  -0.206087  -0.941587
    B   0.498763   0.291261   1.986598
    B   1.805799  -0.233276   0.945956
    B   1.660287  -1.663755  -0.015486
    B   0.552470  -1.474589  -1.453314
    B  -1.201815  -1.568675  -0.919409
    B   0.662528  -1.510423   1.465240
    B  -0.039742   2.359345  -0.015190
    H  -0.089390   3.539370   0.056327
    H   2.001852   2.248686   1.443095
    H  -0.966981   2.224543   2.356150
    H  -2.592428   1.979411   0.064566
    H  -0.845803   2.404447  -2.392665
    H   2.051255   2.272758  -1.403994
    H   0.728077   0.306971  -3.152924
    H   2.858924  -0.192526  -1.468669
    H  -2.135869   0.128068  -2.406081
    H  -3.228162  -0.534652   0.154797
    H  -1.922910   0.043969   2.237458
    H   0.578435   0.313846   3.164439
    H   2.826353  -0.209161   1.548816
    H   2.568785  -2.417971  -0.021290
    H   0.764678  -2.164600  -2.389076
    H  -1.952671  -2.352230  -1.381144
    H  -1.731879  -2.087485   1.444479
    H   0.718146  -2.188606   2.427315
    H  -0.099682  -3.497186   0.112548
    C  -1.094980  -1.445688   0.852497
    C  -1.217488   0.066978   1.416856
