38
B17C2H19
    B   0.066739  -2.340430   0.002977
    B  -1.584849   1.496714  -0.175405
    B  -0.584538   1.565813   1.435800
    B   1.168222   1.590175   0.968794
    B   1.232928   1.519131  -0.889206
    B  -0.442070   1.676616  -1.577200
    B  -2.044650  -0.314286   0.024764
    B  -1.398175   0.248160  -1.489259
    B   0.437389   0.251757  -1.978692
    B   1.799990  -0.262136  -0.982921
    B   0.503032   0.321692   2.001233
    B   1.807497  -0.166608   0.895720
    B   1.667660  -1.658886  -0.001694
    B   0.603574  -1.535336  -1.455604
    B  -1.160520  -1.511983  -0.961183
    B   0.618196  -1.464388   1.463526
    B  -0.056260   2.359135  -0.024195
    H  -0.091762   3.539358   0.060077
    H   1.944338   2.307573   1.495743
    H  -1.090950   2.162207   2.319205
    H  -2.607674   2.064501  -0.014138
    H  -0.728872   2.412341  -2.456024
    H   2.089091   2.196140  -1.339799
    H   0.645822   0.242782  -3.144775
    H   2.845990  -0.227071  -1.535559
    H  -2.229520   0.204724  -2.331579
    H  -3.193083  -0.480016   0.230050
    H  -1.784743  -0.143604   2.367864
    H   0.653039   0.357608   3.171847
    H   2.850975  -0.140249   1.454910
    H   2.575965  -2.410697   0.067453
    H   0.814308  -2.240807  -2.379136
    H  -1.921421  -2.273664  -1.443262
    H  -1.771027  -2.150304   1.352470
    H   0.652620  -2.125724   2.437065
    H  -0.094874  -3.505882   0.096345
    C  -1.113790  -1.486373   0.809922
    C  -1.113097  -0.071098   1.523863
