38
B17C2H19
    B   0.067709  -2.335283   0.004900
    B  -1.584685   1.460587  -0.146964
    B  -0.566870   1.568255   1.432219
    B   1.177464   1.585233   0.965895
    B   1.224097   1.527571  -0.900961
    B  -0.445179   1.681056  -1.583787
    B  -2.058311  -0.330010   0.011219
    B  -1.401844   0.246908  -1.481519
    B   0.441328   0.260562  -1.978861
    B   1.799172  -0.257977  -0.975730
    B   0.512629   0.319849   1.995951
    B   1.798079  -0.188116   0.909361
    B   1.672949  -1.668649  -0.005002
    B   0.607161  -1.525749  -1.455098
    B  -1.165031  -1.518144  -0.960558
    B   0.634808  -1.475909   1.465503
    B  -0.053544   2.352060  -0.022704
    H  -0.100572   3.531682   0.061615
    H   1.953914   2.301869   1.491926
    H  -1.057407   2.179562   2.315176
    H  -2.602990   2.033642   0.021067
    H  -0.745661   2.418486  -2.455661
    H   2.075808   2.203127  -1.363245
    H   0.657851   0.257183  -3.143254
    H   2.846349  -0.232064  -1.526693
    H  -2.228997   0.226126  -2.328881
    H  -3.206574  -0.508776   0.207837
    H  -1.821352  -0.098231   2.334418
    H   0.649523   0.360209   3.168010
    H   2.830934  -0.162031   1.490338
    H   2.580116  -2.422163   0.058202
    H   0.817324  -2.227891  -2.381850
    H  -1.917106  -2.287009  -1.445805
    H  -1.755127  -2.132215   1.363450
    H   0.671012  -2.132212   2.442685
    H  -0.098167  -3.499846   0.104962
    C  -1.103743  -1.466604   0.815571
    C  -1.139569  -0.038205   1.496267
