38
B17C2H19
    B   0.061128  -2.334210   0.016036
    B  -1.558883   1.404683  -0.085076
    B  -0.510912   1.606905   1.465033
    B   1.204347   1.557049   0.933022
    B   1.230302   1.577446  -0.934245
    B  -0.464562   1.664761  -1.549910
    B  -2.072617  -0.361149  -0.012711
    B  -1.304215   0.119785  -1.531787
    B   0.505921   0.335940  -2.003560
    B   1.800819  -0.208992  -0.953201
    B   0.497804   0.297604   1.984748
    B   1.800010  -0.220523   0.933472
    B   1.648487  -1.657234  -0.022321
    B   0.519580  -1.459706  -1.463176
    B  -1.221473  -1.584469  -0.898760
    B   0.661572  -1.506404   1.461825
    B  -0.044459   2.359589  -0.013686
    H  -0.101739   3.539450   0.055418
    H   1.991521   2.261574   1.461184
    H  -0.975352   2.224842   2.356460
    H  -2.585438   1.969053   0.055643
    H  -0.853247   2.400343  -2.388641
    H   2.067951   2.278800  -1.383988
    H   0.753448   0.332018  -3.161309
    H   2.864525  -0.212201  -1.474167
    H  -2.093285   0.093570  -2.414945
    H  -3.228595  -0.516653   0.154273
    H  -1.917909   0.043335   2.238862
    H   0.585683   0.303142   3.162275
    H   2.825415  -0.206364   1.529048
    H   2.555731  -2.413085  -0.030878
    H   0.721568  -2.148579  -2.401685
    H  -1.972735  -2.369839  -1.356124
    H  -1.740450  -2.091923   1.453943
    H   0.722736  -2.176777   2.428742
    H  -0.092550  -3.500996   0.113381
    C  -1.102804  -1.454593   0.858097
    C  -1.211820   0.060690   1.418709
