40
B18C2H20
    B  -0.051713   2.165714  -0.029244
    B   1.450479   1.455173  -0.832148
    B  -0.018468   1.446063  -1.702589
    B  -1.534547   1.453867  -0.886538
    B  -1.484558   1.447627   0.834761
    B   1.643748   0.972502   0.949269
    B   0.003426   1.456132   1.671336
    B   1.102209   0.000000  -1.867301
    B  -1.067289   0.000000   1.886331
    B  -1.145064   0.000000  -1.844597
    B  -2.173209   0.000000  -0.070089
    B   1.450479  -1.455173  -0.832148
    B  -0.018468  -1.446063  -1.702589
    B  -1.534547  -1.453867  -0.886538
    B  -1.484558  -1.447627   0.834761
    B   1.643748  -0.972502   0.949269
    B   0.003426  -1.456132   1.671336
    B  -0.051713  -2.165714  -0.029244
    H   0.075187   3.338329   0.043801
    H   0.162282   2.223129   2.553693
    H  -2.259167   2.189031   1.334140
    H  -2.353055   2.163259  -1.359474
    H   0.025704   2.188246  -2.622532
    H   2.292740   2.222479  -1.138616
    H   2.537892   1.537910   1.464704
    H   3.162485   0.000000  -0.486598
    H   1.157224   0.000000   2.981716
    H  -1.581687   0.000000   2.948990
    H   1.763332   0.000000  -2.845353
    H  -1.664581   0.000000  -2.907543
    H  -3.353090   0.000000   0.015578
    H  -2.353055  -2.163259  -1.359474
    H   0.025704  -2.188246  -2.622532
    H  -2.259167  -2.189031   1.334140
    H   0.162282  -2.223129   2.553693
    H   2.537892  -1.537910   1.464704
    H   2.292740  -2.222479  -1.138616
    H   0.075187  -3.338329   0.043801
    C   0.731090   0.000000   1.988222
    C   2.088682   0.000000  -0.360213
