40
B18C2H20
    B   0.000000   2.150082  -0.031210
    B   1.492822   1.456289  -0.871954
    B   0.000000   1.294447  -1.772878
    B  -1.492822   1.456289  -0.871954
    B  -1.489979   1.375283   0.848752
    B   1.489979   1.375283   0.848752
    B   1.302273   0.000000  -1.821779
    B   2.189254   0.000000  -0.144607
    B   0.936731   0.000000   1.959902
    B  -0.936731   0.000000   1.959902
    B  -1.302273   0.000000  -1.821779
    B  -2.189254   0.000000  -0.144607
    B   1.492822  -1.456289  -0.871954
    B   0.000000  -1.294447  -1.772878
    B  -1.492822  -1.456289  -0.871954
    B  -1.489979  -1.375283   0.848752
    B   1.489979  -1.375283   0.848752
    B   0.000000  -2.150082  -0.031210
    H   0.000000   3.322380   0.101820
    H   0.000000   2.041603   2.421607
    H  -2.256159   2.051597   1.438201
    H  -2.270494   2.247061  -1.281729
    H   0.000000   2.002474  -2.721056
    H   2.270494   2.247061  -1.281729
    H   2.256159   2.051597   1.438201
    H   3.364618   0.000000  -0.014557
    H   1.477911   0.000000   3.004079
    H  -1.477911   0.000000   3.004079
    H   1.900362   0.000000  -2.841284
    H  -1.900362   0.000000  -2.841284
    H  -3.364618   0.000000  -0.014557
    H  -2.270494  -2.247061  -1.281729
    H   0.000000  -2.002474  -2.721056
    H  -2.256159  -2.051597   1.438201
    H   0.000000  -2.041603   2.421607
    H   2.256159  -2.051597   1.438201
    H   2.270494  -2.247061  -1.281729
    H   0.000000  -3.322380   0.101820
    C   0.000000   1.345731   1.593559
    C   0.000000  -1.345731   1.593559
