40
B18C2H20
    B   0.000000   2.143154  -0.024188
    B   1.491128   1.455041  -0.873416
    B   0.000000   1.320901  -1.767946
    B  -1.491128   1.455041  -0.873416
    B  -1.495802   1.349728   0.850661
    B   1.495802   1.349728   0.850661
    B   1.278262   0.000000  -1.828446
    B   2.200447   0.000000  -0.177206
    B   0.931725   0.000000   1.985923
    B  -0.931725   0.000000   1.985923
    B  -1.278262   0.000000  -1.828446
    B  -2.200447   0.000000  -0.177206
    B   1.491128  -1.455041  -0.873416
    B   0.000000  -1.320901  -1.767946
    B  -1.491128  -1.455041  -0.873416
    B  -1.495802  -1.349728   0.850661
    B   1.495802  -1.349728   0.850661
    B   0.000000  -2.143154  -0.024188
    H   0.000000   3.314225   0.118131
    H   0.000000   2.050024   2.411436
    H  -2.265263   2.024365   1.438021
    H  -2.268277   2.248375  -1.279512
    H   0.000000   2.040069  -2.707239
    H   2.268277   2.248375  -1.279512
    H   2.265263   2.024365   1.438021
    H   3.376366   0.000000  -0.054401
    H   1.469872   0.000000   3.031437
    H  -1.469872   0.000000   3.031437
    H   1.863546   0.000000  -2.855787
    H  -1.863546   0.000000  -2.855787
    H  -3.376366   0.000000  -0.054401
    H  -2.268277  -2.248375  -1.279512
    H   0.000000  -2.040069  -2.707239
    H  -2.265263  -2.024365   1.438021
    H   0.000000  -2.050024   2.411436
    H   2.265263  -2.024365   1.438021
    H   2.268277  -2.248375  -1.279512
    H   0.000000  -3.314225   0.118131
    C   0.000000   1.338628   1.596913
    C   0.000000  -1.338628   1.596913
