40
B18C2H20
    B   0.000000   2.131338  -0.002947
    B   1.484818   1.452031  -0.862174
    B   0.000000   1.332145  -1.756777
    B  -1.484818   1.452031  -0.862174
    B  -1.486625   1.332649   0.866258
    B   1.486625   1.332649   0.866258
    B   1.268565   0.000000  -1.831712
    B   2.198779   0.000000  -0.179886
    B   0.923747   0.000000   1.991739
    B  -0.923747   0.000000   1.991739
    B  -1.268565   0.000000  -1.831712
    B  -2.198779   0.000000  -0.179886
    B   1.484818  -1.452031  -0.862174
    B   0.000000  -1.332145  -1.756777
    B  -1.484818  -1.452031  -0.862174
    B  -1.486625  -1.332649   0.866258
    B   1.486625  -1.332649   0.866258
    B   0.000000  -2.131338  -0.002947
    H   0.000000   3.309766   0.055334
    H   0.000000   2.076938   2.471034
    H  -2.289526   2.020835   1.390304
    H  -2.256382   2.246437  -1.275876
    H   0.000000   2.044795  -2.701126
    H   2.256382   2.246437  -1.275876
    H   2.289526   2.020835   1.390304
    H   3.377555   0.000000  -0.098959
    H   1.505667   0.000000   3.014760
    H  -1.505667   0.000000   3.014760
    H   1.849098   0.000000  -2.861240
    H  -1.849098   0.000000  -2.861240
    H  -3.377555   0.000000  -0.098959
    H  -2.256382  -2.246437  -1.275876
    H   0.000000  -2.044795  -2.701126
    H  -2.289526  -2.020835   1.390304
    H   0.000000  -2.076938   2.471034
    H   2.289526  -2.020835   1.390304
    H   2.256382  -2.246437  -1.275876
    H   0.000000  -3.309766   0.055334
    C   0.000000   1.382290   1.662890
    C   0.000000  -1.382290   1.662890
