40
B18C2H20
    B  -0.103469   2.189127  -0.006116
    B  -0.013493   1.369369  -1.716240
    B  -1.523025   1.454699  -0.866161
    B  -1.538865   1.337284   0.874544
    B  -0.005342   1.468091   1.695887
    B   1.237889  -0.015869  -1.767914
    B   2.143673  -0.041659  -0.032557
    B   1.047138  -0.011167   1.847922
    B  -0.924843   0.005160   1.976627
    B  -1.231784   0.003526  -1.827843
    B  -2.219144   0.003730  -0.174537
    B   1.491264  -1.499051  -0.847804
    B   0.001650  -1.344528  -1.735945
    B  -1.487600  -1.452546  -0.853908
    B  -1.517049  -1.336529   0.876254
    B   1.482556  -1.515350   0.860036
    B   0.005386  -1.458787   1.715443
    B  -0.006530  -2.196308  -0.007543
    H   0.103857   3.348114  -0.017102
    H   0.119408   2.244274   2.575128
    H  -2.332822   2.049748   1.385473
    H  -2.255717   2.262606  -1.324323
    H   0.127725   2.075600  -2.650164
    H   2.101733   2.032458  -1.150384
    H   2.118206   1.994266   1.141281
    H   3.305463   0.144327   0.017012
    H   1.750516   0.109448   2.787741
    H  -1.462559   0.041736   3.028470
    H   1.887626   0.116059  -2.742804
    H  -1.744500   0.031319  -2.892616
    H  -3.401087   0.007279  -0.155316
    H  -2.251960  -2.227851  -1.316205
    H   0.054484  -1.980484  -2.732291
    H  -2.343403  -2.012722   1.384813
    H   0.027258  -2.146636   2.677743
    H   2.344669  -2.161063   1.346221
    H   2.332783  -2.171529  -1.336366
    H  -0.032893  -3.377819  -0.022144
    C   1.362297   1.333398  -0.789570
    C   1.350505   1.328278   0.775530
