40
B18C2H20
    B   0.000000   2.164401   0.010281
    B   1.478837   1.459198  -0.860411
    B  -1.478837   1.459198  -0.860411
    B  -1.487862   1.385756   0.864738
    B   1.487862   1.385756   0.864738
    B   1.072554  -0.008937  -1.841241
    B   2.143909   0.002371  -0.118723
    B   0.971249  -0.018273   1.944076
    B  -0.971249  -0.018273   1.944076
    B  -1.072554  -0.008937  -1.841241
    B  -2.143909   0.002371  -0.118723
    B   1.479001  -1.458117  -0.862814
    B   0.000000  -1.495532  -1.719700
    B  -1.479001  -1.458117  -0.862814
    B  -1.497832  -1.384794   0.865016
    B   1.497832  -1.384794   0.865016
    B   0.000000  -1.487481   1.718464
    B   0.000000  -2.211162   0.007811
    H   0.000000   3.341230   0.025999
    H   0.000000   2.030333   2.420223
    H  -2.254424   2.108750   1.393246
    H  -2.218969   2.223209  -1.368405
    H   0.000000   1.994841  -2.439281
    H   2.218969   2.223209  -1.368405
    H   2.254424   2.108750   1.393246
    H   3.325032   0.048429  -0.114382
    H   1.542767   0.095596   2.969023
    H  -1.542767   0.095596   2.969023
    H   1.591778   0.092475  -2.895763
    H  -1.591778   0.092475  -2.895763
    H  -3.325032   0.048429  -0.114382
    H  -2.324412  -2.128768  -1.346906
    H   0.000000  -2.178685  -2.683333
    H  -2.362638  -2.022721   1.358903
    H   0.000000  -2.218446   2.647351
    H   2.362638  -2.022721   1.358903
    H   2.324412  -2.128768  -1.346906
    H   0.000000  -3.392900   0.026566
    C   0.000000   1.330245   1.595385
    C   0.000000   1.334811  -1.582206
