40
B18C2H20
    B   0.000000   2.142565   0.015045
    B   1.484656   1.462623  -0.863861
    B  -1.484656   1.462623  -0.863861
    B  -1.500795   1.344658   0.868742
    B   1.500795   1.344658   0.868742
    B   1.087662  -0.007479  -1.838768
    B   2.162366   0.002950  -0.179646
    B   0.946548  -0.019024   1.989222
    B  -0.946548  -0.019024   1.989222
    B  -1.087662  -0.007479  -1.838768
    B  -2.162366   0.002950  -0.179646
    B   1.477802  -1.462325  -0.863277
    B   0.000000  -1.498661  -1.719137
    B  -1.477802  -1.462325  -0.863277
    B  -1.508363  -1.343766   0.869310
    B   1.508363  -1.343766   0.869310
    B   0.000000  -1.478237   1.720417
    B   0.000000  -2.194963   0.013085
    H   0.000000   3.319095   0.045672
    H   0.000000   2.048997   2.395919
    H  -2.268109   2.065321   1.399462
    H  -2.209588   2.247276  -1.362112
    H   0.000000   2.002171  -2.423548
    H   2.209588   2.247276  -1.362112
    H   2.268109   2.065321   1.399462
    H   3.343561   0.049862  -0.179457
    H   1.519623   0.100049   3.012564
    H  -1.519623   0.100049   3.012564
    H   1.582089   0.091215  -2.905611
    H  -1.582089   0.091215  -2.905611
    H  -3.343561   0.049862  -0.179457
    H  -2.314340  -2.152047  -1.336265
    H   0.000000  -2.184093  -2.680939
    H  -2.375778  -1.981057   1.359764
    H   0.000000  -2.236504   2.627393
    H   2.375778  -1.981057   1.359764
    H   2.314340  -2.152047  -1.336265
    H   0.000000  -3.376341   0.045366
    C   0.000000   1.324748   1.592486
    C   0.000000   1.334709  -1.571623
