40
B18C2H20
    B   1.456343   1.457435  -0.833498
    B   0.000000   1.103993  -1.871073
    B  -1.456343   1.457435  -0.833498
    B  -0.974830   1.630858   0.948859
    B   0.974830   1.630858   0.948859
    B   1.448065  -0.011872  -1.702816
    B   2.161995  -0.045278  -0.027415
    B   1.456333  -0.005087   1.678015
    B  -1.456333  -0.005087   1.678015
    B  -1.448065  -0.011872  -1.702816
    B  -2.161995  -0.045278  -0.027415
    B   1.450363  -1.530163  -0.890264
    B   0.000000  -1.130418  -1.852224
    B  -1.450363  -1.530163  -0.890264
    B  -1.451634  -1.485171   0.830171
    B   1.451634  -1.485171   0.830171
    B   0.000000  -1.082667   1.880831
    B   0.000000  -2.166792  -0.058919
    H   0.000000   3.162869  -0.472968
    H   0.000000   1.149969   2.982414
    H  -1.536590   2.524718   1.469137
    H  -2.224585   2.300660  -1.134059
    H   0.000000   1.768210  -2.847065
    H   2.224585   2.300660  -1.134059
    H   1.536590   2.524718   1.469137
    H   3.333837   0.086602   0.050322
    H   2.224250   0.153591   2.559436
    H  -2.224250   0.153591   2.559436
    H   2.192626   0.030123  -2.621084
    H  -2.192626   0.030123  -2.621084
    H  -3.333837   0.086602   0.050322
    H  -2.156482  -2.349519  -1.366299
    H   0.000000  -1.651177  -2.914521
    H  -2.195883  -2.262019   1.321969
    H   0.000000  -1.603786   2.940092
    H   2.195883  -2.262019   1.321969
    H   2.156482  -2.349519  -1.366299
    H   0.000000  -3.347375   0.016723
    C   0.000000   0.719624   1.990640
    C   0.000000   2.087794  -0.358610
