40
B18C2H20
    B   1.462377   1.449712  -0.819142
    B   0.000000   1.081357  -1.867810
    B  -1.462377   1.449712  -0.819142
    B  -0.964186   1.649370   0.958264
    B   0.964186   1.649370   0.958264
    B   1.463520  -0.014642  -1.697684
    B   2.177996  -0.063644  -0.036381
    B   1.462140   0.004820   1.665739
    B  -1.462140   0.004820   1.665739
    B  -1.463520  -0.014642  -1.697684
    B  -2.177996  -0.063644  -0.036381
    B   1.440478  -1.536078  -0.893144
    B   0.000000  -1.084765  -1.869396
    B  -1.440478  -1.536078  -0.893144
    B  -1.463825  -1.483104   0.827488
    B   1.463825  -1.483104   0.827488
    B   0.000000  -1.089525   1.861284
    B   0.000000  -2.161534  -0.018624
    H   0.000000   3.153360  -0.492626
    H   0.000000   1.132099   2.983678
    H  -1.524789   2.543492   1.478682
    H  -2.228568   2.295546  -1.118113
    H   0.000000   1.748485  -2.841585
    H   2.228568   2.295546  -1.118113
    H   1.524789   2.543492   1.478682
    H   3.349305   0.072973   0.041396
    H   2.226658   0.163655   2.550127
    H  -2.226658   0.163655   2.550127
    H   2.207112   0.031490  -2.616426
    H  -2.207112   0.031490  -2.616426
    H  -3.349305   0.072973   0.041396
    H  -2.123842  -2.369282  -1.378328
    H   0.000000  -1.601447  -2.933652
    H  -2.206872  -2.259071   1.322353
    H   0.000000  -1.604677   2.923507
    H   2.206872  -2.259071   1.322353
    H   2.123842  -2.369282  -1.378328
    H   0.000000  -3.342178   0.059076
    C   0.000000   0.717926   1.984923
    C   0.000000   2.080421  -0.358165
