40
B18C2H20
    B   1.487272   1.445716  -0.858941
    B   0.000000   1.333468  -1.744681
    B  -1.487272   1.445716  -0.858941
    B  -1.508557   1.337934   0.871262
    B   1.508557   1.337934   0.871262
    B   0.000000   1.445243   1.718655
    B   1.265718   0.000000  -1.823135
    B   2.209050   0.000000  -0.181055
    B   0.948478   0.000000   2.005288
    B  -0.948478   0.000000   2.005288
    B  -1.265718   0.000000  -1.823135
    B  -2.209050   0.000000  -0.181055
    B   1.487272  -1.445716  -0.858941
    B   0.000000  -1.333468  -1.744681
    B  -1.487272  -1.445716  -0.858941
    B  -1.508557  -1.337934   0.871262
    B   1.508557  -1.337934   0.871262
    B   0.000000  -1.445243   1.718655
    H   0.000000   3.200987  -0.000372
    H   0.000000   2.244975   2.592840
    H  -2.327277   2.053410   1.343763
    H  -2.243487   2.246361  -1.295745
    H   0.000000   2.048566  -2.690416
    H   2.243487   2.246361  -1.295745
    H   2.327277   2.053410   1.343763
    H   3.393856   0.000000  -0.148398
    H   1.569225   0.000000   3.014911
    H  -1.569225   0.000000   3.014911
    H   1.831820   0.000000  -2.864394
    H  -1.831820   0.000000  -2.864394
    H  -3.393856   0.000000  -0.148398
    H  -2.243487  -2.246361  -1.295745
    H   0.000000  -2.048566  -2.690416
    H  -2.327277  -2.053410   1.343763
    H   0.000000  -2.244975   2.592840
    H   2.327277  -2.053410   1.343763
    H   2.243487  -2.246361  -1.295745
    H   0.000000  -3.200987  -0.000372
    C   0.000000   2.094822   0.000212
    C   0.000000  -2.094822   0.000212
