40
B18C2H20
    B   1.462753   1.449908  -0.818811
    B   0.000000   1.079089  -1.868431
    B  -1.462753   1.449908  -0.818811
    B  -0.964854   1.648182   0.958366
    B   0.964854   1.648182   0.958366
    B   1.464669  -0.014263  -1.698091
    B   2.178159  -0.063635  -0.036760
    B   1.462803   0.004697   1.665698
    B  -1.462803   0.004697   1.665698
    B  -1.464669  -0.014263  -1.698091
    B  -2.178159  -0.063635  -0.036760
    B   1.438567  -1.536124  -0.893588
    B   0.000000  -1.081279  -1.872285
    B  -1.438567  -1.536124  -0.893588
    B  -1.464144  -1.482412   0.826934
    B   1.464144  -1.482412   0.826934
    B   0.000000  -1.089792   1.861809
    B   0.000000  -2.161453  -0.013984
    H   0.000000   3.152976  -0.492442
    H   0.000000   1.131388   2.983899
    H  -1.524091   2.543044   1.479176
    H  -2.227683   2.296736  -1.118282
    H   0.000000   1.746475  -2.842128
    H   2.227683   2.296736  -1.118282
    H   1.524091   2.543044   1.479176
    H   3.349557   0.071307   0.042199
    H   2.228230   0.164764   2.549084
    H  -2.228230   0.164764   2.549084
    H   2.208848   0.032093  -2.616311
    H  -2.208848   0.032093  -2.616311
    H  -3.349557   0.071307   0.042199
    H  -2.121054  -2.370511  -1.378102
    H   0.000000  -1.598228  -2.936523
    H  -2.207560  -2.258277   1.321438
    H   0.000000  -1.605838   2.923480
    H   2.207560  -2.258277   1.321438
    H   2.121054  -2.370511  -1.378102
    H   0.000000  -3.342013   0.064150
    C   0.000000   0.717584   1.984987
    C   0.000000   2.080071  -0.358162
