40
B18C2H20
    B  -0.013305   2.094618  -0.008270
    B   1.471736   1.439066  -0.870934
    B  -0.012836   1.369210  -1.724415
    B  -1.525233   1.451183  -0.880209
    B  -1.499322   1.371881   0.850815
    B   1.586440   0.998726   0.916251
    B  -0.018331   1.439311   1.709521
    B   1.212293   0.000000  -1.879865
    B  -1.023146   0.000000   1.987082
    B  -1.279166   0.000000  -1.841349
    B  -2.233337   0.000000  -0.183367
    B   1.471736  -1.439066  -0.870934
    B  -0.012836  -1.369210  -1.724415
    B  -1.525233  -1.451183  -0.880209
    B  -1.499322  -1.371881   0.850815
    B   1.586440  -0.998726   0.916251
    B  -0.018331  -1.439311   1.709521
    B  -0.013305  -2.094618  -0.008270
    H   0.108089   3.268185   0.061176
    H   0.126487   2.226900   2.575324
    H  -2.274193   2.122791   1.337600
    H  -2.281647   2.247530  -1.317547
    H   0.020587   2.119354  -2.639576
    H   2.293260   2.227508  -1.178030
    H   2.471203   1.584860   1.427656
    H   3.196495   0.000000  -0.428776
    H   1.224986   0.000000   2.982719
    H  -1.532966   0.000000   3.051762
    H   1.880105   0.000000  -2.853217
    H  -1.797481   0.000000  -2.904099
    H  -3.412834   0.000000  -0.100190
    H  -2.281647  -2.247530  -1.317547
    H   0.020587  -2.119354  -2.639576
    H  -2.274193  -2.122791   1.337600
    H   0.126487  -2.226900   2.575324
    H   2.471203  -1.584860   1.427656
    H   2.293260  -2.227508  -1.178030
    H   0.108089  -3.268185   0.061176
    C   0.741905   0.000000   2.015330
    C   2.117280   0.000000  -0.364485
