40
B18C2H20
    B   0.000000   2.167178   0.009277
    B   1.478482   1.457930  -0.860806
    B  -1.478482   1.457930  -0.860806
    B  -1.489269   1.391428   0.864981
    B   1.489269   1.391428   0.864981
    B   1.063526  -0.009584  -1.844048
    B   2.142157   0.002659  -0.102380
    B   0.982218  -0.017609   1.932423
    B  -0.982218  -0.017609   1.932423
    B  -1.063526  -0.009584  -1.844048
    B  -2.142157   0.002659  -0.102380
    B   1.479954  -1.456452  -0.863210
    B   0.000000  -1.496790  -1.719274
    B  -1.479954  -1.456452  -0.863210
    B  -1.498672  -1.391104   0.865152
    B   1.498672  -1.391104   0.865152
    B   0.000000  -1.489242   1.718629
    B   0.000000  -2.213152   0.005850
    H   0.000000   3.344052   0.023335
    H   0.000000   2.026816   2.424495
    H  -2.255560   2.114451   1.393798
    H  -2.221575   2.216684  -1.372257
    H   0.000000   1.998366  -2.438213
    H   2.221575   2.216684  -1.372257
    H   2.255560   2.114451   1.393798
    H   3.323425   0.048107  -0.100036
    H   1.550828   0.095071   2.959306
    H  -1.550828   0.095071   2.959306
    H   1.584394   0.092293  -2.897740
    H  -1.584394   0.092293  -2.897740
    H  -3.323425   0.048107  -0.100036
    H  -2.327342  -2.123603  -1.348587
    H   0.000000  -2.180131  -2.682823
    H  -2.363471  -2.029078   1.358902
    H   0.000000  -2.214812   2.651625
    H   2.363471  -2.029078   1.358902
    H   2.327342  -2.123603  -1.348587
    H   0.000000  -3.394958   0.022909
    C   0.000000   1.332397   1.594878
    C   0.000000   1.337891  -1.581415
