40
B18C2H20
    B  -0.028254   2.119977  -0.016496
    B  -0.008332   1.326737  -1.745827
    B  -1.501974   1.464056  -0.867300
    B  -1.514685   1.329680   0.865077
    B   1.478677   1.324729   0.854199
    B   1.271866  -0.018914  -1.813070
    B   2.200948  -0.023165  -0.191519
    B   0.933955  -0.023712   2.002095
    B  -0.935854  -0.019339   2.006052
    B  -1.270065   0.003317  -1.823687
    B  -2.213919   0.003804  -0.185350
    B   1.495252  -1.473618  -0.864763
    B  -0.001819  -1.337803  -1.742027
    B  -1.494244  -1.446877  -0.862486
    B  -1.507979  -1.340477   0.868528
    B   1.504575  -1.345974   0.868504
    B  -0.001061  -1.473801   1.727415
    B   0.002111  -2.153459   0.001561
    H   0.091496   3.289187   0.051627
    H   0.010372   2.056905   2.386894
    H  -2.249351   2.070402   1.415916
    H  -2.246340   2.275224  -1.297291
    H   0.101600   2.066267  -2.658375
    H   2.071046   2.057222  -1.183743
    H   2.267656   2.069154   1.309950
    H   3.370711   0.122114  -0.161445
    H   1.545044   0.121076   3.000096
    H  -1.501508   0.109469   3.032486
    H   1.878976   0.109850  -2.815548
    H  -1.804023   0.029973  -2.878247
    H  -3.394095   0.030271  -0.118872
    H  -2.264085  -2.227093  -1.306867
    H   0.015184  -1.990923  -2.728336
    H  -2.353295  -1.993986   1.376484
    H   0.011208  -2.235191   2.631905
    H   2.381325  -1.958774   1.374669
    H   2.284210  -2.235537  -1.306320
    H   0.005452  -3.335154   0.003117
    C  -0.003871   1.327438   1.588512
    C   1.373087   1.326948  -0.797244
