40
B18C2H20
    B  -0.108977   2.227071  -0.000589
    B  -0.008467   1.449253  -1.698179
    B  -1.518151   1.450030  -0.864624
    B  -1.524511   1.429221   0.867693
    B  -0.006441   1.465731   1.693418
    B   1.105817  -0.015467  -1.801411
    B   2.125681  -0.035144  -0.006822
    B   1.066188  -0.013281   1.818363
    B  -1.025736   0.006748   1.872503
    B  -1.088965   0.005958  -1.843139
    B  -2.162949   0.007114  -0.035365
    B   1.487723  -1.507955  -0.851797
    B   0.000952  -1.425521  -1.716685
    B  -1.491321  -1.445973  -0.857335
    B  -1.495015  -1.424986   0.861340
    B   1.485227  -1.509402   0.855454
    B   0.000648  -1.448106   1.716250
    B  -0.004840  -2.227907   0.000104
    H   0.120365   3.382082  -0.000630
    H   0.131367   2.199666   2.605924
    H  -2.314509   2.151101   1.369912
    H  -2.297119   2.189144  -1.359527
    H   0.130040   2.167685  -2.622704
    H   2.127081   1.993779  -1.154418
    H   2.128965   1.986574   1.147709
    H   3.290256   0.139874   0.003188
    H   1.739774   0.107394   2.779282
    H  -1.569059   0.035209   2.922334
    H   1.764022   0.106726  -2.772538
    H  -1.624965   0.032350  -2.896708
    H  -3.345481   0.007203  -0.030271
    H  -2.297048  -2.160739  -1.344860
    H   0.042846  -2.068850  -2.708429
    H  -2.312577  -2.119476   1.358552
    H   0.037901  -2.100508   2.702067
    H   2.356333  -2.139582   1.346743
    H   2.355834  -2.143455  -1.341983
    H  -0.016066  -3.409949  -0.004312
    C   1.359158   1.328394  -0.788837
    C   1.356020   1.327995   0.780599
