40
B18C2H20
    B   0.000000   2.169003   0.008245
    B   1.451922   1.464177  -0.866579
    B   0.000000   1.043194  -1.902003
    B  -1.451922   1.464177  -0.866579
    B  -1.456712   1.450174   0.840267
    B   1.456712   1.450174   0.840267
    B   1.447649   0.000000  -1.771877
    B   2.163492   0.000000  -0.056159
    B   0.973584   0.000000   1.891342
    B  -0.973584   0.000000   1.891342
    B  -1.447649   0.000000  -1.771877
    B  -2.163492   0.000000  -0.056159
    B   1.451922  -1.464177  -0.866579
    B   0.000000  -1.043194  -1.902003
    B  -1.451922  -1.464177  -0.866579
    B  -1.456712  -1.450174   0.840267
    B   1.456712  -1.450174   0.840267
    B   0.000000  -2.169003   0.008245
    H   0.000000   3.346505   0.093083
    H   0.000000   2.002002   2.492638
    H  -2.225135   2.133228   1.418874
    H  -2.196529   2.279816  -1.290306
    H   0.000000   1.702281  -2.884474
    H   2.196529   2.279816  -1.290306
    H   2.225135   2.133228   1.418874
    H   3.335271   0.000000   0.097621
    H   1.535834   0.000000   2.925257
    H  -1.535834   0.000000   2.925257
    H   2.150856   0.000000  -2.721740
    H  -2.150856   0.000000  -2.721740
    H  -3.335271   0.000000   0.097621
    H  -2.196529  -2.279816  -1.290306
    H   0.000000  -1.702281  -2.884474
    H  -2.225135  -2.133228   1.418874
    H   0.000000  -2.002002   2.492638
    H   2.225135  -2.133228   1.418874
    H   2.196529  -2.279816  -1.290306
    H   0.000000  -3.346505   0.093083
    C   0.000000   1.358578   1.623691
    C   0.000000  -1.358578   1.623691
