40
B18C2H20
    B  -0.108533   2.228213  -0.001020
    B  -0.007861   1.451308  -1.696240
    B  -1.521281   1.445177  -0.866065
    B  -1.520845   1.438457   0.865992
    B  -0.006271   1.457990   1.694334
    B   1.098159  -0.015368  -1.802747
    B   2.127335  -0.036388  -0.004739
    B   1.085108  -0.013637   1.809954
    B  -1.054536   0.006930   1.858716
    B  -1.077598   0.005272  -1.847315
    B  -2.159550   0.006575  -0.012816
    B   1.485978  -1.508566  -0.853156
    B   0.000349  -1.430844  -1.718421
    B  -1.490479  -1.443349  -0.856750
    B  -1.492750  -1.435484   0.858643
    B   1.485208  -1.507938   0.854832
    B   0.000632  -1.435391   1.717679
    B  -0.004102  -2.229014  -0.000024
    H   0.120711   3.383252  -0.001511
    H   0.130707   2.183636   2.613593
    H  -2.305806   2.167373   1.366122
    H  -2.302590   2.179946  -1.363407
    H   0.130201   2.171560  -2.619433
    H   2.126777   1.994279  -1.152531
    H   2.130057   1.989630   1.151441
    H   3.291989   0.138276  -0.001536
    H   1.751080   0.108539   2.775869
    H  -1.597308   0.034773   2.908656
    H   1.759784   0.107396  -2.771574
    H  -1.616533   0.032020  -2.899309
    H  -3.342121   0.006097  -0.010611
    H  -2.300292  -2.151109  -1.347973
    H   0.041206  -2.073226  -2.710643
    H  -2.305724  -2.136943   1.353510
    H   0.039325  -2.081475   2.707730
    H   2.353974  -2.141660   1.345838
    H   2.352898  -2.145358  -1.343676
    H  -0.014880  -3.411052  -0.000060
    C   1.358548   1.330733  -0.784181
    C   1.359033   1.329366   0.783098
