40
B18C2H20
    B  -0.048420   2.152860  -0.028697
    B   1.455436   1.449986  -0.841028
    B  -0.017520   1.424215  -1.705430
    B  -1.533987   1.456470  -0.885138
    B  -1.485290   1.426474   0.837444
    B   1.637319   0.981062   0.945691
    B  -0.000444   1.450329   1.680274
    B   1.131336   0.000000  -1.871869
    B  -1.056778   0.000000   1.913093
    B  -1.195948   0.000000  -1.836325
    B  -2.186005   0.000000  -0.113009
    B   1.455436  -1.449986  -0.841028
    B  -0.017520  -1.424215  -1.705430
    B  -1.533987  -1.456470  -0.885138
    B  -1.485290  -1.426474   0.837444
    B   1.637319  -0.981062   0.945691
    B  -0.000444  -1.450329   1.680274
    B  -0.048420  -2.152860  -0.028697
    H   0.089204   3.323636   0.050501
    H   0.153516   2.227479   2.554491
    H  -2.262861   2.167943   1.333190
    H  -2.337447   2.188439  -1.349815
    H   0.022478   2.164612  -2.627629
    H   2.289294   2.227823  -1.143660
    H   2.530693   1.547133   1.461946
    H   3.172922   0.000000  -0.469866
    H   1.177978   0.000000   2.982776
    H  -1.573297   0.000000   2.974418
    H   1.793095   0.000000  -2.849289
    H  -1.713772   0.000000  -2.899719
    H  -3.365964   0.000000  -0.029751
    H  -2.337447  -2.188439  -1.349815
    H   0.022478  -2.164612  -2.627629
    H  -2.262861  -2.167943   1.333190
    H   0.153516  -2.227479   2.554491
    H   2.530693  -1.547133   1.461946
    H   2.289294  -2.227823  -1.143660
    H   0.089204  -3.323636   0.050501
    C   0.735330   0.000000   1.996127
    C   2.097160   0.000000  -0.360597
