40
B18C2H20
    B   0.000000   2.180334   0.003970
    B   1.476514   1.449205  -0.858701
    B  -1.476514   1.449205  -0.858701
    B  -1.478857   1.429203   0.861791
    B   1.478857   1.429203   0.861791
    B   1.041125  -0.010231  -1.855856
    B   2.126637   0.002575  -0.031023
    B   1.015369  -0.015232   1.883256
    B  -1.015369  -0.015232   1.883256
    B  -1.041125  -0.010231  -1.855856
    B  -2.126637   0.002575  -0.031023
    B   1.482718  -1.445905  -0.862801
    B   0.000000  -1.494550  -1.720390
    B  -1.482718  -1.445905  -0.862801
    B  -1.487772  -1.428142   0.861435
    B   1.487772  -1.428142   0.861435
    B   0.000000  -1.494969   1.718468
    B   0.000000  -2.225008   0.000466
    H   0.000000   3.357401   0.007898
    H   0.000000   2.003609   2.444532
    H  -2.240685   2.159138   1.387325
    H  -2.231641   2.189958  -1.378660
    H   0.000000   1.996820  -2.446430
    H   2.231641   2.189958  -1.378660
    H   2.240685   2.159138   1.387325
    H   3.307828   0.048048  -0.029775
    H   1.572081   0.090481   2.917624
    H  -1.572081   0.090481   2.917624
    H   1.584251   0.093299  -2.897878
    H  -1.584251   0.093299  -2.897878
    H  -3.307828   0.048048  -0.029775
    H  -2.337912  -2.097179  -1.355596
    H   0.000000  -2.179746  -2.682780
    H  -2.347829  -2.071846   1.355745
    H   0.000000  -2.194294   2.670872
    H   2.347829  -2.071846   1.355745
    H   2.337912  -2.097179  -1.355596
    H   0.000000  -3.406983   0.004443
    C   0.000000   1.333969   1.594999
    C   0.000000   1.336674  -1.589547
