40
B18C2H20
    B   1.482367   1.442277  -0.855962
    B   0.000000   1.317871  -1.761082
    B  -1.482367   1.442277  -0.855962
    B  -1.524726   1.321256   0.880144
    B   1.524726   1.321256   0.880144
    B   0.000000   1.441988   1.710946
    B   1.253891   0.000000  -1.824449
    B   2.204551   0.000000  -0.170456
    B   0.955685   0.000000   1.996325
    B  -0.955685   0.000000   1.996325
    B  -1.253891   0.000000  -1.824449
    B  -2.204551   0.000000  -0.170456
    B   1.482367  -1.442277  -0.855962
    B   0.000000  -1.317871  -1.761082
    B  -1.482367  -1.442277  -0.855962
    B  -1.524726  -1.321256   0.880144
    B   1.524726  -1.321256   0.880144
    B   0.000000  -1.441988   1.710946
    H   0.000000   3.071880   0.000441
    H   0.000000   2.295449   2.525688
    H  -2.275889   2.122141   1.313739
    H  -2.187317   2.296111  -1.263617
    H   0.000000   2.118288  -2.628890
    H   2.187317   2.296111  -1.263617
    H   2.275889   2.122141   1.313739
    H   3.387479   0.000000  -0.145409
    H   1.568209   0.000000   3.008497
    H  -1.568209   0.000000   3.008497
    H   1.824990   0.000000  -2.860581
    H  -1.824990   0.000000  -2.860581
    H  -3.387479   0.000000  -0.145409
    H  -2.187317  -2.296111  -1.263617
    H   0.000000  -2.118288  -2.628890
    H  -2.275889  -2.122141   1.313739
    H   0.000000  -2.295449   2.525688
    H   2.275889  -2.122141   1.313739
    H   2.187317  -2.296111  -1.263617
    H   0.000000  -3.071880   0.000441
    C   0.000000   1.990182   0.000495
    C   0.000000  -1.990182   0.000495
