40
B18C2H20
    B   0.000000   2.140040   0.014423
    B   1.485390   1.462515  -0.863298
    B  -1.485390   1.462515  -0.863298
    B  -1.501156   1.345269   0.868640
    B   1.501156   1.345269   0.868640
    B   1.093921  -0.006454  -1.838163
    B   2.163917   0.003256  -0.180512
    B   0.947001  -0.018899   1.989795
    B  -0.947001  -0.018899   1.989795
    B  -1.093921  -0.006454  -1.838163
    B  -2.163917   0.003256  -0.180512
    B   1.476901  -1.460706  -0.864059
    B   0.000000  -1.497381  -1.719816
    B  -1.476901  -1.460706  -0.864059
    B  -1.508095  -1.342073   0.868856
    B   1.508095  -1.342073   0.868856
    B   0.000000  -1.477067   1.720145
    B   0.000000  -2.192864   0.013789
    H   0.000000   3.316708   0.043482
    H   0.000000   2.048328   2.397056
    H  -2.267396   2.064552   1.402646
    H  -2.208136   2.248347  -1.362843
    H   0.000000   1.996690  -2.423668
    H   2.208136   2.248347  -1.362843
    H   2.267396   2.064552   1.402646
    H   3.345108   0.048419  -0.178880
    H   1.518825   0.100784   3.013682
    H  -1.518825   0.100784   3.013682
    H   1.585644   0.090307  -2.906335
    H  -1.585644   0.090307  -2.906335
    H  -3.345108   0.048419  -0.178880
    H  -2.311689  -2.153824  -1.335379
    H   0.000000  -2.179327  -2.684066
    H  -2.373799  -1.981982   1.358947
    H   0.000000  -2.234819   2.627526
    H   2.373799  -1.981982   1.358947
    H   2.311689  -2.153824  -1.335379
    H   0.000000  -3.374348   0.044879
    C   0.000000   1.324626   1.592249
    C   0.000000   1.330393  -1.571924
