40
B18C2H20
    B  -0.037706   2.177918  -0.021613
    B   1.469647   1.475012  -0.856599
    B  -0.009295   1.322706  -1.756892
    B  -1.500023   1.444463  -0.865980
    B  -1.525146   1.326579   0.869715
    B  -0.007020   1.474702   1.701535
    B   1.260534   0.000000  -1.762181
    B   2.104193   0.000000   0.029499
    B   1.078015   0.000000   1.806642
    B  -0.898604   0.000000   1.969482
    B  -1.268064   0.000000  -1.837373
    B  -2.224789   0.000000  -0.175816
    B   1.469647  -1.475012  -0.856599
    B  -0.009295  -1.322706  -1.756892
    B  -1.500023  -1.444463  -0.865980
    B  -1.525146  -1.326579   0.869715
    B  -0.007020  -1.474702   1.701535
    B  -0.037706  -2.177918  -0.021613
    H   0.051758   3.353097   0.029173
    H   0.102987   2.187728   2.634641
    H  -2.332315   2.011834   1.396757
    H  -2.233213   2.270622  -1.289992
    H   0.043239   2.006963  -2.720179
    H   2.331410   2.189739  -1.227741
    H   2.097138   2.040109   1.211087
    H   3.271255   0.000000   0.184573
    H   1.795209   0.000000   2.740281
    H  -1.412269   0.000000   3.033826
    H   1.926481   0.000000  -2.738443
    H  -1.825627   0.000000  -2.879699
    H  -3.406185   0.000000  -0.135673
    H  -2.233213  -2.270622  -1.289992
    H   0.043239  -2.006963  -2.720179
    H  -2.332315  -2.011834   1.396757
    H   0.102987  -2.187728   2.634641
    H   2.097138  -2.040109   1.211087
    H   2.331410  -2.189739  -1.227741
    H   0.051758  -3.353097   0.029173
    C   1.348465  -1.391130   0.778665
    C   1.348465   1.391130   0.778665
