40
B18C2H20
    B   0.000000   2.150690  -0.023846
    B   1.472211   1.457577  -0.866006
    B   0.000000   1.086551  -1.853872
    B  -1.472211   1.457577  -0.866006
    B  -1.463186   1.435004   0.841451
    B   1.463186   1.435004   0.841451
    B   1.438973   0.000000  -1.774075
    B   2.183098   0.000000  -0.077677
    B   0.961430   0.000000   1.912067
    B  -0.961430   0.000000   1.912067
    B  -1.438973   0.000000  -1.774075
    B  -2.183098   0.000000  -0.077677
    B   1.472211  -1.457577  -0.866006
    B   0.000000  -1.086551  -1.853872
    B  -1.472211  -1.457577  -0.866006
    B  -1.463186  -1.435004   0.841451
    B   1.463186  -1.435004   0.841451
    B   0.000000  -2.150690  -0.023846
    H   0.000000   3.327891   0.062904
    H   0.000000   2.015039   2.471337
    H  -2.227900   2.119027   1.423859
    H  -2.214406   2.276351  -1.287428
    H   0.000000   1.741580  -2.839330
    H   2.214406   2.276351  -1.287428
    H   2.227900   2.119027   1.423859
    H   3.354090   0.000000   0.082309
    H   1.520719   0.000000   2.947297
    H  -1.520719   0.000000   2.947297
    H   2.111298   0.000000  -2.746019
    H  -2.111298   0.000000  -2.746019
    H  -3.354090   0.000000   0.082309
    H  -2.214406  -2.276351  -1.287428
    H   0.000000  -1.741580  -2.839330
    H  -2.227900  -2.119027   1.423859
    H   0.000000  -2.015039   2.471337
    H   2.227900  -2.119027   1.423859
    H   2.214406  -2.276351  -1.287428
    H   0.000000  -3.327891   0.062904
    C   0.000000   1.354403   1.615287
    C   0.000000  -1.354403   1.615287
