40
B18C2H20
    B   0.000000   2.187012   0.001142
    B   1.475724   1.443502  -0.857861
    B  -1.475724   1.443502  -0.857861
    B  -1.473714   1.448304   0.860367
    B   1.473714   1.448304   0.860367
    B   1.025924  -0.010776  -1.864165
    B   2.117071   0.002659   0.010755
    B   1.035519  -0.013809   1.854569
    B  -1.035519  -0.013809   1.854569
    B  -1.025924  -0.010776  -1.864165
    B  -2.117071   0.002659   0.010755
    B   1.484673  -1.438824  -0.862761
    B   0.000000  -1.494179  -1.720644
    B  -1.484673  -1.438824  -0.862761
    B  -1.481939  -1.447011   0.859554
    B   1.481939  -1.447011   0.859554
    B   0.000000  -1.497778   1.718621
    B   0.000000  -2.230799  -0.002847
    H   0.000000   3.364157  -0.000383
    H   0.000000   1.989149   2.455965
    H  -2.233111   2.182084   1.383980
    H  -2.237968   2.173451  -1.382550
    H   0.000000   1.997779  -2.449897
    H   2.237968   2.173451  -1.382550
    H   2.233111   2.182084   1.383980
    H   3.298272   0.048074   0.010425
    H   1.584648   0.087840   2.893593
    H  -1.584648   0.087840   2.893593
    H   1.581200   0.093664  -2.899584
    H  -1.581200   0.093664  -2.899584
    H  -3.298272   0.048074   0.010425
    H  -2.344735  -2.080698  -1.359161
    H   0.000000  -2.181312  -2.681766
    H  -2.339663  -2.093476   1.354181
    H   0.000000  -2.182273   2.681481
    H   2.339663  -2.093476   1.354181
    H   2.344735  -2.080698  -1.359161
    H   0.000000  -3.412820  -0.005594
    C   0.000000   1.334237   1.595133
    C   0.000000   1.336863  -1.593620
