40
B18C2H20
    B   0.000000   2.153629  -0.014966
    B   1.470779   1.459810  -0.865609
    B   0.000000   1.099157  -1.864229
    B  -1.470779   1.459810  -0.865609
    B  -1.464193   1.431189   0.842913
    B   1.464193   1.431189   0.842913
    B   1.426999   0.000000  -1.783762
    B   2.180112   0.000000  -0.078383
    B   0.963092   0.000000   1.911570
    B  -0.963092   0.000000   1.911570
    B  -1.426999   0.000000  -1.783762
    B  -2.180112   0.000000  -0.078383
    B   1.470779  -1.459810  -0.865609
    B   0.000000  -1.099157  -1.864229
    B  -1.470779  -1.459810  -0.865609
    B  -1.464193  -1.431189   0.842913
    B   1.464193  -1.431189   0.842913
    B   0.000000  -2.153629  -0.014966
    H   0.000000   3.330369   0.078908
    H   0.000000   2.013499   2.472180
    H  -2.228562   2.114434   1.426806
    H  -2.217522   2.275356  -1.285260
    H   0.000000   1.763341  -2.843388
    H   2.217522   2.275356  -1.285260
    H   2.228562   2.114434   1.426806
    H   3.351865   0.000000   0.075881
    H   1.520150   0.000000   2.948036
    H  -1.520150   0.000000   2.948036
    H   2.099324   0.000000  -2.755677
    H  -2.099324   0.000000  -2.755677
    H  -3.351865   0.000000   0.075881
    H  -2.217522  -2.275356  -1.285260
    H   0.000000  -1.763341  -2.843388
    H  -2.228562  -2.114434   1.426806
    H   0.000000  -2.013499   2.472180
    H   2.228562  -2.114434   1.426806
    H   2.217522  -2.275356  -1.285260
    H   0.000000  -3.330369   0.078908
    C   0.000000   1.352742   1.616265
    C   0.000000  -1.352742   1.616265
