40
B18C2H20
    B  -0.094834   2.194311  -0.007189
    B  -0.013659   1.385381  -1.714311
    B  -1.520397   1.457495  -0.863383
    B  -1.542777   1.347236   0.876530
    B  -0.008254   1.466110   1.698397
    B   1.213363  -0.017582  -1.773698
    B   2.138919  -0.039010  -0.026005
    B   1.051692  -0.013559   1.847051
    B  -0.935777   0.004625   1.964556
    B  -1.208546   0.003496  -1.825934
    B  -2.208336   0.003591  -0.166043
    B   1.491885  -1.504308  -0.849308
    B   0.001792  -1.363808  -1.731048
    B  -1.484809  -1.451995  -0.853868
    B  -1.512414  -1.341695   0.872672
    B   1.480910  -1.512993   0.858773
    B   0.003564  -1.456979   1.713047
    B  -0.005197  -2.202198  -0.005360
    H   0.107319   3.354207  -0.013169
    H   0.119879   2.238293   2.580587
    H  -2.336699   2.060153   1.386039
    H  -2.260126   2.257118  -1.324514
    H   0.126144   2.094974  -2.645746
    H   2.108006   2.023298  -1.154385
    H   2.116544   1.995267   1.142855
    H   3.301851   0.142429   0.012316
    H   1.755212   0.109556   2.786025
    H  -1.474346   0.034973   3.016382
    H   1.862963   0.113296  -2.748866
    H  -1.722478   0.030177  -2.890196
    H  -3.390478   0.002268  -0.153476
    H  -2.257981  -2.219036  -1.315158
    H   0.048869  -1.997776  -2.728849
    H  -2.339115  -2.019653   1.378676
    H   0.026925  -2.137384   2.680706
    H   2.344660  -2.156526   1.345526
    H   2.341410  -2.165084  -1.339463
    H  -0.034633  -3.383738  -0.014923
    C   1.360565   1.333972  -0.790562
    C   1.348384   1.331099   0.775586
