40
B18C2H20
    B   1.464786   1.446652  -0.870600
    B   0.000000   1.304044  -1.805046
    B  -1.464786   1.446652  -0.870600
    B  -1.478354   1.315007   0.867041
    B   1.478354   1.315007   0.867041
    B   1.262125  -0.002756  -1.832577
    B   2.195516   0.008423  -0.171447
    B   0.933612  -0.031817   2.003969
    B  -0.933612  -0.031817   2.003969
    B  -1.262125  -0.002756  -1.832577
    B  -2.195516   0.008423  -0.171447
    B   1.492939  -1.450496  -0.861311
    B   0.000000  -1.353079  -1.744951
    B  -1.492939  -1.450496  -0.861311
    B  -1.506852  -1.355525   0.872983
    B   1.506852  -1.355525   0.872983
    B   0.000000  -1.488829   1.725227
    B   0.000000  -2.162125   0.002239
    H   0.000000   3.064515   0.029950
    H   0.000000   2.072510   2.380671
    H  -2.178885   2.121875   1.363419
    H  -2.170392   2.322781  -1.224595
    H   0.000000   2.112903  -2.664377
    H   2.170392   2.322781  -1.224595
    H   2.178885   2.121875   1.363419
    H   3.372592   0.077675  -0.096028
    H   1.535930   0.114053   3.007010
    H  -1.535930   0.114053   3.007010
    H   1.845552   0.044489  -2.859416
    H  -1.845552   0.044489  -2.859416
    H  -3.372592   0.077675  -0.096028
    H  -2.283459  -2.214305  -1.295526
    H   0.000000  -2.041502  -2.705932
    H  -2.360687  -1.995124   1.381470
    H   0.000000  -2.236110   2.640931
    H   2.360687  -1.995124   1.381470
    H   2.283459  -2.214305  -1.295526
    H   0.000000  -3.342957   0.009096
    C   0.000000   1.285052   1.634829
    C   0.000000   1.983713  -0.071150
