40
B18C2H20
    B   0.000000   2.084403   0.028971
    B   1.505127   1.431156  -0.870875
    B   0.000000   1.360655  -1.714605
    B  -1.505127   1.431156  -0.870875
    B  -1.550473   1.207081   0.871210
    B   1.550473   1.207081   0.871210
    B   0.000000   1.419188   1.715589
    B   1.255566   0.000000  -1.872016
    B   2.313884   0.000000  -0.366175
    B  -1.255566   0.000000  -1.872016
    B  -2.313884   0.000000  -0.366175
    B   1.505127  -1.431156  -0.870875
    B   0.000000  -1.360655  -1.714605
    B  -1.505127  -1.431156  -0.870875
    B  -1.550473  -1.207081   0.871210
    B   1.550473  -1.207081   0.871210
    B   0.000000  -1.419188   1.715589
    B   0.000000  -2.084403   0.028971
    H   0.000000   3.264537   0.078273
    H   0.000000   2.117012   2.664257
    H  -2.327343   1.871659   1.464231
    H  -2.239426   2.291847  -1.220013
    H   0.000000   2.117737  -2.625000
    H   2.239426   2.291847  -1.220013
    H   2.327343   1.871659   1.464231
    H   3.489843   0.000000  -0.251289
    H   1.323948   0.000000   2.898811
    H  -1.323948   0.000000   2.898811
    H   1.754913   0.000000  -2.943830
    H  -1.754913   0.000000  -2.943830
    H  -3.489843   0.000000  -0.251289
    H  -2.239426  -2.291847  -1.220013
    H   0.000000  -2.117737  -2.625000
    H  -2.327343  -1.871659   1.464231
    H   0.000000  -2.117012   2.664257
    H   2.327343  -1.871659   1.464231
    H   2.239426  -2.291847  -1.220013
    H   0.000000  -3.264537   0.078273
    C  -0.912057   0.000000   1.898041
    C   0.912057   0.000000   1.898041
