40
B18C2H20
    B   1.456485   1.455711  -0.831737
    B   0.000000   1.098189  -1.871154
    B  -1.456485   1.455711  -0.831737
    B  -0.973902   1.634154   0.950456
    B   0.973902   1.634154   0.950456
    B   1.451545  -0.012952  -1.701555
    B   2.163044  -0.048237  -0.027855
    B   1.456915  -0.002952   1.676360
    B  -1.456915  -0.002952   1.676360
    B  -1.451545  -0.012952  -1.701555
    B  -2.163044  -0.048237  -0.027855
    B   1.447645  -1.531495  -0.890583
    B   0.000000  -1.120198  -1.857779
    B  -1.447645  -1.531495  -0.890583
    B  -1.451425  -1.485359   0.830274
    B   1.451425  -1.485359   0.830274
    B   0.000000  -1.082525   1.880101
    B   0.000000  -2.169213  -0.055170
    H   0.000000   3.161365  -0.476851
    H   0.000000   1.148714   2.983583
    H  -1.535978   2.528166   1.470015
    H  -2.225034   2.299181  -1.131253
    H   0.000000   1.763209  -2.846573
    H   2.225034   2.299181  -1.131253
    H   1.535978   2.528166   1.470015
    H   3.334811   0.084808   0.049374
    H   2.225504   0.154153   2.557470
    H  -2.225504   0.154153   2.557470
    H   2.196466   0.030398  -2.619413
    H  -2.196466   0.030398  -2.619413
    H  -3.334811   0.084808   0.049374
    H  -2.151224  -2.352318  -1.368037
    H   0.000000  -1.638505  -2.921257
    H  -2.196021  -2.261767   1.322248
    H   0.000000  -1.601179   2.940626
    H   2.196021  -2.261767   1.322248
    H   2.151224  -2.352318  -1.368037
    H   0.000000  -3.349836   0.020665
    C   0.000000   0.720329   1.990843
    C   0.000000   2.086667  -0.358288
