40
B18C2H20
    B   1.423076   1.469606  -0.875932
    B   0.000000   1.081273  -1.983372
    B  -1.423076   1.469606  -0.875932
    B  -0.984420   1.582363   0.890586
    B   0.984420   1.582363   0.890586
    B   1.465378  -0.009371  -1.692295
    B   2.089868   0.025506   0.013301
    B   1.309334  -0.038383   1.782718
    B  -1.309334  -0.038383   1.782718
    B  -1.465378  -0.009371  -1.692295
    B  -2.089868   0.025506   0.013301
    B   1.411874  -1.509943  -0.882925
    B   0.000000  -1.065224  -1.875081
    B  -1.411874  -1.509943  -0.882925
    B  -1.449376  -1.487007   0.848378
    B   1.449376  -1.487007   0.848378
    B   0.000000  -1.388584   1.841689
    B   0.000000  -2.201450   0.059989
    H   0.000000   3.225416  -0.409232
    H   0.000000   1.394505   2.942888
    H  -1.634063   2.461647   1.333523
    H  -2.181321   2.324322  -1.174673
    H   0.000000   1.702013  -2.981459
    H   2.181321   2.324322  -1.174673
    H   1.634063   2.461647   1.333523
    H   3.259454   0.138549   0.147151
    H   2.088434   0.078049   2.662446
    H  -2.088434   0.078049   2.662446
    H   2.243514   0.007696  -2.584208
    H  -2.243514   0.007696  -2.584208
    H  -3.259454   0.138549   0.147151
    H  -2.122851  -2.330563  -1.350070
    H   0.000000  -1.474194  -2.987097
    H  -2.262435  -2.226678   1.287971
    H   0.000000  -1.864391   2.923828
    H   2.262435  -2.226678   1.287971
    H   2.122851  -2.330563  -1.350070
    H   0.000000  -3.384211   0.044027
    C   0.000000   0.858602   2.005758
    C   0.000000   2.144656  -0.393612
