40
B18C2H20
    B   0.000000   2.152627  -0.030975
    B   1.485362   1.456037  -0.869413
    B   0.000000   1.235519  -1.800426
    B  -1.485362   1.456037  -0.869413
    B  -1.479653   1.399377   0.845273
    B   1.479653   1.399377   0.845273
    B   1.347177   0.000000  -1.803242
    B   2.185418   0.000000  -0.118289
    B   0.947240   0.000000   1.941378
    B  -0.947240   0.000000   1.941378
    B  -1.347177   0.000000  -1.803242
    B  -2.185418   0.000000  -0.118289
    B   1.485362  -1.456037  -0.869413
    B   0.000000  -1.235519  -1.800426
    B  -1.485362  -1.456037  -0.869413
    B  -1.479653  -1.399377   0.845273
    B   1.479653  -1.399377   0.845273
    B   0.000000  -2.152627  -0.030975
    H   0.000000   3.326710   0.086332
    H   0.000000   2.032135   2.440375
    H  -2.245591   2.078220   1.432109
    H  -2.254258   2.252980  -1.284251
    H   0.000000   1.924607  -2.762236
    H   2.254258   2.252980  -1.284251
    H   2.245591   2.078220   1.432109
    H   3.359264   0.000000   0.022450
    H   1.494847   0.000000   2.982401
    H  -1.494847   0.000000   2.982401
    H   1.972391   0.000000  -2.806592
    H  -1.972391   0.000000  -2.806592
    H  -3.359264   0.000000   0.022450
    H  -2.254258  -2.252980  -1.284251
    H   0.000000  -1.924607  -2.762236
    H  -2.245591  -2.078220   1.432109
    H   0.000000  -2.032135   2.440375
    H   2.245591  -2.078220   1.432109
    H   2.254258  -2.252980  -1.284251
    H   0.000000  -3.326710   0.086332
    C   0.000000   1.349448   1.601524
    C   0.000000  -1.349448   1.601524
