40
B18C2H20
    B   0.000000   2.175179   0.006287
    B   1.477108   1.455317  -0.859279
    B  -1.477108   1.455317  -0.859279
    B  -1.482735   1.411516   0.863197
    B   1.482735   1.411516   0.863197
    B   1.056199  -0.009434  -1.846344
    B   2.132504   0.002614  -0.070629
    B   0.994442  -0.016726   1.908615
    B  -0.994442  -0.016726   1.908615
    B  -1.056199  -0.009434  -1.846344
    B  -2.132504   0.002614  -0.070629
    B   1.480604  -1.452939  -0.862895
    B   0.000000  -1.495573  -1.720280
    B  -1.480604  -1.452939  -0.862895
    B  -1.492556  -1.410251   0.862879
    B   1.492556  -1.410251   0.862879
    B   0.000000  -1.492765   1.717981
    B   0.000000  -2.220829   0.003971
    H   0.000000   3.352179   0.015280
    H   0.000000   2.015727   2.435385
    H  -2.247827   2.136521   1.390876
    H  -2.225797   2.205786  -1.374697
    H   0.000000   1.994171  -2.444932
    H   2.225797   2.205786  -1.374697
    H   2.247827   2.136521   1.390876
    H   3.313702   0.048103  -0.067232
    H   1.559519   0.092537   2.937888
    H  -1.559519   0.092537   2.937888
    H   1.588613   0.092384  -2.894157
    H  -1.588613   0.092384  -2.894157
    H  -3.313702   0.048103  -0.067232
    H  -2.332020  -2.111716  -1.352459
    H   0.000000  -2.177980  -2.684526
    H  -2.355445  -2.049875   1.357651
    H   0.000000  -2.204886   2.661098
    H   2.355445  -2.049875   1.357651
    H   2.332020  -2.111716  -1.352459
    H   0.000000  -3.402726   0.014234
    C   0.000000   1.334041   1.595497
    C   0.000000   1.335785  -1.586554
