40
B18C2H20
    B   1.464131   1.448358  -0.816510
    B   0.000000   1.078045  -1.866018
    B  -1.464131   1.448358  -0.816510
    B  -0.964220   1.649692   0.959815
    B   0.964220   1.649692   0.959815
    B   1.464909  -0.014038  -1.698719
    B   2.180498  -0.066722  -0.039458
    B   1.462882   0.005894   1.665147
    B  -1.462882   0.005894   1.665147
    B  -1.464909  -0.014038  -1.698719
    B  -2.180498  -0.066722  -0.039458
    B   1.439638  -1.536294  -0.894201
    B   0.000000  -1.083265  -1.871231
    B  -1.439638  -1.536294  -0.894201
    B  -1.463146  -1.481112   0.826523
    B   1.463146  -1.481112   0.826523
    B   0.000000  -1.089506   1.863507
    B   0.000000  -2.160907  -0.016547
    H   0.000000   3.151832  -0.493752
    H   0.000000   1.132733   2.983916
    H  -1.522182   2.545508   1.480466
    H  -2.226667   2.296901  -1.117468
    H   0.000000   1.745865  -2.839440
    H   2.226667   2.296901  -1.117468
    H   1.522182   2.545508   1.480466
    H   3.351848   0.066714   0.041967
    H   2.229869   0.166489   2.547042
    H  -2.229869   0.166489   2.547042
    H   2.206798   0.034444  -2.618646
    H  -2.206798   0.034444  -2.618646
    H  -3.351848   0.066714   0.041967
    H  -2.121951  -2.371606  -1.377304
    H   0.000000  -1.598698  -2.936209
    H  -2.205352  -2.257327   1.322443
    H   0.000000  -1.607687   2.924057
    H   2.205352  -2.257327   1.322443
    H   2.121951  -2.371606  -1.377304
    H   0.000000  -3.341402   0.061459
    C   0.000000   0.719753   1.984650
    C   0.000000   2.079433  -0.356315
