40
B18C2H20
    B   0.000000   2.175428   0.006352
    B   1.477150   1.455827  -0.859244
    B  -1.477150   1.455827  -0.859244
    B  -1.482867   1.411669   0.863095
    B   1.482867   1.411669   0.863095
    B   1.057091  -0.009346  -1.845059
    B   2.131629   0.002665  -0.071750
    B   0.993316  -0.016634   1.908257
    B  -0.993316  -0.016634   1.908257
    B  -1.057091  -0.009346  -1.845059
    B  -2.131629   0.002665  -0.071750
    B   1.480207  -1.453629  -0.862613
    B   0.000000  -1.495338  -1.720686
    B  -1.480207  -1.453629  -0.862613
    B  -1.492450  -1.410587   0.862759
    B   1.492450  -1.410587   0.862759
    B   0.000000  -1.492700   1.718107
    B   0.000000  -2.221284   0.004131
    H   0.000000   3.352435   0.015855
    H   0.000000   2.016000   2.434969
    H  -2.248176   2.136016   1.391313
    H  -2.225791   2.206215  -1.374847
    H   0.000000   1.993699  -2.445092
    H   2.225791   2.206215  -1.374847
    H   2.248176   2.136016   1.391313
    H   3.312836   0.048002  -0.067945
    H   1.558507   0.092582   2.937474
    H  -1.558507   0.092582   2.937474
    H   1.589019   0.092365  -2.893134
    H  -1.589019   0.092365  -2.893134
    H  -3.312836   0.048002  -0.067945
    H  -2.331635  -2.112364  -1.352232
    H   0.000000  -2.177011  -2.685425
    H  -2.355582  -2.049799   1.357586
    H   0.000000  -2.204393   2.661541
    H   2.355582  -2.049799   1.357586
    H   2.331635  -2.112364  -1.352232
    H   0.000000  -3.403184   0.014536
    C   0.000000   1.334450   1.594938
    C   0.000000   1.335933  -1.586278
