40
B18C2H20
    B  -0.105223   2.214609  -0.001563
    B  -0.010095   1.436250  -1.702173
    B  -1.517888   1.460089  -0.865477
    B  -1.530447   1.375575   0.872188
    B  -0.004213   1.467223   1.694658
    B   1.131142  -0.016118  -1.787653
    B   2.128080  -0.036137  -0.020556
    B   1.054847  -0.012332   1.837228
    B  -0.964128   0.006111   1.932598
    B  -1.136108   0.004249  -1.834285
    B  -2.184008   0.005769  -0.130589
    B   1.489228  -1.502116  -0.851236
    B  -0.001712  -1.415767  -1.718936
    B  -1.489091  -1.458129  -0.854673
    B  -1.511432  -1.372076   0.869809
    B   1.484394  -1.509300   0.857590
    B   0.001746  -1.454657   1.711899
    B  -0.004762  -2.221889  -0.003286
    H   0.112980   3.371820   0.003262
    H   0.122555   2.225643   2.588907
    H  -2.328166   2.085145   1.380321
    H  -2.281168   2.228880  -1.339530
    H   0.132708   2.149750  -2.629764
    H   2.123663   2.002930  -1.152066
    H   2.127686   1.988514   1.145212
    H   3.291801   0.143515   0.001345
    H   1.743809   0.107199   2.787435
    H  -1.502253   0.039808   2.984610
    H   1.781071   0.107184  -2.764230
    H  -1.653998   0.031086  -2.896722
    H  -3.366384   0.009203  -0.125439
    H  -2.281821  -2.197188  -1.327734
    H   0.050333  -2.056066  -2.712080
    H  -2.338681  -2.049686   1.374656
    H   0.032885  -2.129527   2.683070
    H   2.355823  -2.142988   1.343397
    H   2.353887  -2.143973  -1.339694
    H  -0.021687  -3.403602  -0.002529
    C   1.359734   1.332371  -0.787846
    C   1.354891   1.328627   0.780144
