40
B18C2H20
    B   1.460793   1.453101  -0.827385
    B   0.000000   1.072720  -1.878237
    B  -1.460793   1.453101  -0.827385
    B  -0.970404   1.636016   0.952476
    B   0.970404   1.636016   0.952476
    B   1.469727  -0.014065  -1.698685
    B   2.168213  -0.052049  -0.031761
    B   1.464851   0.002501   1.669302
    B  -1.464851   0.002501   1.669302
    B  -1.469727  -0.014065  -1.698685
    B  -2.168213  -0.052049  -0.031761
    B   1.426313  -1.534947  -0.892330
    B   0.000000  -1.058822  -1.885647
    B  -1.426313  -1.534947  -0.892330
    B  -1.470009  -1.485007   0.829195
    B   1.470009  -1.485007   0.829195
    B   0.000000  -1.091158   1.865984
    B   0.000000  -2.161930   0.012683
    H   0.000000   3.149725  -0.486551
    H   0.000000   1.131229   2.980800
    H  -1.525646   2.534070   1.471979
    H  -2.227395   2.300502  -1.120693
    H   0.000000   1.743727  -2.849499
    H   2.227395   2.300502  -1.120693
    H   1.525646   2.534070   1.471979
    H   3.340249   0.081827   0.044373
    H   2.225403   0.161298   2.557063
    H  -2.225403   0.161298   2.557063
    H   2.219231   0.023871  -2.612676
    H  -2.219231   0.023871  -2.612676
    H  -3.340249   0.081827   0.044373
    H  -2.103656  -2.372133  -1.379371
    H   0.000000  -1.570299  -2.952561
    H  -2.220190  -2.258768   1.315731
    H   0.000000  -1.608996   2.926687
    H   2.220190  -2.258768   1.315731
    H   2.103656  -2.372133  -1.379371
    H   0.000000  -3.342892   0.086355
    C   0.000000   0.708383   1.985651
    C   0.000000   2.075871  -0.359831
