40
B18C2H20
    B   0.000000   2.181284   0.003838
    B   1.476151   1.450150  -0.858535
    B  -1.476151   1.450150  -0.858535
    B  -1.478449   1.429553   0.861837
    B   1.478449   1.429553   0.861837
    B   1.041900  -0.010097  -1.854301
    B   2.125507   0.002572  -0.032059
    B   1.014358  -0.015427   1.882871
    B  -1.014358  -0.015427   1.882871
    B  -1.041900  -0.010097  -1.854301
    B  -2.125507   0.002572  -0.032059
    B   1.482581  -1.446740  -0.862909
    B   0.000000  -1.495046  -1.720240
    B  -1.482581  -1.446740  -0.862909
    B  -1.487898  -1.428197   0.861392
    B   1.487898  -1.428197   0.861392
    B   0.000000  -1.495527   1.718139
    B   0.000000  -2.225818   0.000694
    H   0.000000   3.358354   0.007481
    H   0.000000   2.003482   2.445526
    H  -2.241009   2.158631   1.387491
    H  -2.231447   2.190737  -1.378472
    H   0.000000   1.995686  -2.447491
    H   2.231447   2.190737  -1.378472
    H   2.241009   2.158631   1.387491
    H   3.306701   0.048112  -0.030602
    H   1.572104   0.090370   2.916676
    H  -1.572104   0.090370   2.916676
    H   1.585107   0.093090  -2.896328
    H  -1.585107   0.093090  -2.896328
    H  -3.306701   0.048112  -0.030602
    H  -2.338022  -2.097521  -1.355895
    H   0.000000  -2.179373  -2.683239
    H  -2.348315  -2.071082   1.356112
    H   0.000000  -2.194537   2.670776
    H   2.348315  -2.071082   1.356112
    H   2.338022  -2.097521  -1.355895
    H   0.000000  -3.407789   0.004621
    C   0.000000   1.334523   1.595497
    C   0.000000   1.336459  -1.589889
