40
B18C2H20
    B   0.001121   2.147602   0.000699
    B   1.481787   1.456527  -0.846260
    B  -0.001200   1.337421  -1.739670
    B  -1.495295   1.451704  -0.863497
    B  -1.505083   1.341842   0.867810
    B   0.008195   1.456082   1.707343
    B   1.269318   0.000000  -1.808730
    B   2.196624   0.000000  -0.163026
    B   0.957813   0.000000   1.985304
    B  -0.934435   0.000000   2.001102
    B  -1.272371   0.000000  -1.826626
    B  -2.215572   0.000000  -0.184847
    B   1.481787  -1.456527  -0.846260
    B  -0.001200  -1.337421  -1.739670
    B  -1.495295  -1.451704  -0.863497
    B  -1.505083  -1.341842   0.867810
    B   0.008195  -1.456082   1.707343
    B   0.001121  -2.147602   0.000699
    H   0.016802   3.331951   0.009037
    H   0.031221   2.241209   2.595457
    H  -2.325861   2.046231   1.356298
    H  -2.258281   2.246758  -1.304256
    H   0.011599   2.041477  -2.695128
    H   2.261545   2.242610  -1.270124
    H   2.261981   1.991090   1.306074
    H   3.380016   0.000000  -0.115598
    H   1.590612   0.000000   2.986335
    H  -1.534496   0.000000   3.023082
    H   1.856384   0.000000  -2.838242
    H  -1.836411   0.000000  -2.870704
    H  -3.401788   0.000000  -0.148998
    H  -2.258281  -2.246758  -1.304256
    H   0.011599  -2.041477  -2.695128
    H  -2.325861  -2.046231   1.356298
    H   0.031221  -2.241209   2.595457
    H   2.261981  -1.991090   1.306074
    H   2.261545  -2.242610  -1.270124
    H   0.016802  -3.331951   0.009037
    C   1.483622  -1.331909   0.856826
    C   1.483622   1.331909   0.856826
