40
B18C2H20
    B  -0.036218   2.176985  -0.020727
    B   1.469238   1.474558  -0.856111
    B  -0.008669   1.322828  -1.758236
    B  -1.500198   1.444111  -0.866101
    B  -1.525942   1.326707   0.870902
    B  -0.006797   1.474184   1.700960
    B   1.260413   0.000000  -1.762284
    B   2.101368   0.000000   0.029956
    B   1.077084   0.000000   1.803945
    B  -0.898906   0.000000   1.969515
    B  -1.270621   0.000000  -1.838591
    B  -2.227111   0.000000  -0.177376
    B   1.469238  -1.474558  -0.856111
    B  -0.008669  -1.322828  -1.758236
    B  -1.500198  -1.444111  -0.866101
    B  -1.525942  -1.326707   0.870902
    B  -0.006797  -1.474184   1.700960
    B  -0.036218  -2.176985  -0.020727
    H   0.050604   3.352381   0.028546
    H   0.102903   2.190565   2.631558
    H  -2.331226   2.013365   1.398847
    H  -2.234130   2.269463  -1.290539
    H   0.045650   2.008436  -2.720376
    H   2.328669   2.192615  -1.226296
    H   2.097328   2.040874   1.211175
    H   3.268815   0.000000   0.183468
    H   1.793099   0.000000   2.738711
    H  -1.405159   0.000000   3.037493
    H   1.933226   0.000000  -2.733934
    H  -1.824712   0.000000  -2.882733
    H  -3.408333   0.000000  -0.133274
    H  -2.234130  -2.269463  -1.290539
    H   0.045650  -2.008436  -2.720376
    H  -2.331226  -2.013365   1.398847
    H   0.102903  -2.190565   2.631558
    H   2.097328  -2.040874   1.211175
    H   2.328669  -2.192615  -1.226296
    H   0.050604  -3.352381   0.028546
    C   1.349207  -1.390774   0.779084
    C   1.349207   1.390774   0.779084
