40
B18C2H20
    B  -0.109018   2.225204   0.000306
    B  -0.007914   1.448163  -1.693687
    B  -1.518957   1.454628  -0.866594
    B  -1.527476   1.401099   0.870957
    B  -0.005832   1.471968   1.691758
    B   1.109241  -0.017642  -1.798395
    B   2.123479  -0.032589  -0.015482
    B   1.054375  -0.012980   1.831167
    B  -0.987533   0.007498   1.906935
    B  -1.102535   0.004454  -1.840608
    B  -2.170567   0.006510  -0.084501
    B   1.488341  -1.507539  -0.851200
    B   0.000350  -1.429199  -1.718753
    B  -1.487882  -1.451163  -0.857099
    B  -1.500248  -1.397537   0.863399
    B   1.485782  -1.506795   0.856413
    B   0.002038  -1.452069   1.712669
    B  -0.006360  -2.226548  -0.000817
    H   0.117340   3.380791  -0.001445
    H   0.128395   2.215351   2.597365
    H  -2.323730   2.114726   1.375442
    H  -2.292430   2.207327  -1.349236
    H   0.129935   2.164162  -2.620361
    H   2.129707   1.994338  -1.154274
    H   2.131650   1.984536   1.149900
    H   3.289047   0.136746  -0.002044
    H   1.735221   0.107461   2.787027
    H  -1.533262   0.033080   2.955168
    H   1.762095   0.108602  -2.772485
    H  -1.632785   0.030380  -2.896922
    H  -3.353052   0.006033  -0.082354
    H  -2.292890  -2.174223  -1.333965
    H   0.042715  -2.071365  -2.711046
    H  -2.325461  -2.082812   1.361148
    H   0.034149  -2.116328   2.690964
    H   2.359897  -2.134692   1.345176
    H   2.359553  -2.139194  -1.340942
    H  -0.024164  -3.408385   0.001505
    C   1.361708   1.329927  -0.787146
    C   1.357079   1.328076   0.782327
