40
B18C2H20
    B   0.035846   2.160324  -0.020685
    B   1.521604   1.471133  -0.878379
    B   0.013636   1.342066  -1.738829
    B  -1.460097   1.451464  -0.836653
    B   1.511564   1.346626   0.857060
    B  -0.005288   1.451574   1.683031
    B   1.271021   0.020382  -1.808552
    B   2.201128   0.020725  -0.191852
    B   0.917732  -0.001283   1.980160
    B  -0.989229  -0.010467   1.940272
    B  -1.260457  -0.001240  -1.783921
    B  -2.175743  -0.010397  -0.113093
    B  -0.000877  -1.327641  -1.711983
    B  -1.489685  -1.469373  -0.836189
    B  -1.525602  -1.421839   0.880714
    B   1.481366  -1.331458   0.855888
    B  -0.020510  -1.469255   1.707885
    B  -0.003316  -2.153087   0.001552
    H  -0.051332   3.334040   0.028420
    H  -0.092206   2.234614   2.561231
    H  -2.126169   1.911920   1.227859
    H  -2.262720   2.235822  -1.200669
    H  -0.013155   2.005076  -2.716361
    H   2.286810   2.254783  -1.321090
    H   2.343944   2.010693   1.368933
    H   3.374346  -0.089626  -0.178625
    H   1.528615   0.004731   2.990381
    H  -1.655897   0.078949   2.908768
    H   1.847959  -0.090079  -2.830179
    H  -1.830776   0.004944  -2.817591
    H  -3.347768   0.079195  -0.019284
    H  -2.276453  -2.216110  -1.304626
    H   0.074982  -2.029582  -2.656479
    H  -2.344405  -2.129437   1.353850
    H  -0.008362  -2.214986   2.624293
    H   2.336412  -2.034380   1.262473
    H   2.080428  -2.037291  -1.201371
    H   0.108366  -3.324906  -0.063897
    C  -1.377860   1.262580   0.795585
    C   1.382149  -1.319205  -0.797776
