40
B18C2H20
    B   1.457339   1.456214  -0.831092
    B   0.000000   1.098923  -1.871011
    B  -1.457339   1.456214  -0.831092
    B  -0.972873   1.634750   0.951573
    B   0.972873   1.634750   0.951573
    B   1.451600  -0.012118  -1.701818
    B   2.165244  -0.049167  -0.030373
    B   1.457713  -0.002593   1.673670
    B  -1.457713  -0.002593   1.673670
    B  -1.451600  -0.012118  -1.701818
    B  -2.165244  -0.049167  -0.030373
    B   1.450147  -1.531035  -0.890279
    B   0.000000  -1.122684  -1.851816
    B  -1.450147  -1.531035  -0.890279
    B  -1.455228  -1.484666   0.829781
    B   1.455228  -1.484666   0.829781
    B   0.000000  -1.084908   1.876235
    B   0.000000  -2.164480  -0.050551
    H   0.000000   3.161489  -0.476335
    H   0.000000   1.145596   2.984287
    H  -1.534885   2.528882   1.470927
    H  -2.224643   2.300730  -1.130770
    H   0.000000   1.763395  -2.846917
    H   2.224643   2.300730  -1.130770
    H   1.534885   2.528882   1.470927
    H   3.336966   0.083317   0.048532
    H   2.224562   0.154535   2.556524
    H  -2.224562   0.154535   2.556524
    H   2.194740   0.030634  -2.621143
    H  -2.194740   0.030634  -2.621143
    H  -3.336966   0.083317   0.048532
    H  -2.151107  -2.353371  -1.368797
    H   0.000000  -1.642409  -2.914727
    H  -2.198802  -2.261102   1.323196
    H   0.000000  -1.606399   2.935296
    H   2.198802  -2.261102   1.323196
    H   2.151107  -2.353371  -1.368797
    H   0.000000  -3.345173   0.024101
    C   0.000000   0.719893   1.990462
    C   0.000000   2.086738  -0.358614
