40
B18C2H20
    B   1.455832   1.457793  -0.835676
    B   0.000000   1.108358  -1.872668
    B  -1.455832   1.457793  -0.835676
    B  -0.975466   1.628227   0.946905
    B   0.975466   1.628227   0.946905
    B   1.446334  -0.011724  -1.703772
    B   2.161283  -0.043867  -0.025936
    B   1.456098  -0.006315   1.680377
    B  -1.456098  -0.006315   1.680377
    B  -1.446334  -0.011724  -1.703772
    B  -2.161283  -0.043867  -0.025936
    B   1.450456  -1.528132  -0.888474
    B   0.000000  -1.133441  -1.850907
    B  -1.450456  -1.528132  -0.888474
    B  -1.449892  -1.486298   0.831791
    B   1.449892  -1.486298   0.831791
    B   0.000000  -1.082411   1.884518
    B   0.000000  -2.167849  -0.064602
    H   0.000000   3.164071  -0.471044
    H   0.000000   1.152330   2.981848
    H  -1.537477   2.522010   1.467100
    H  -2.225803   2.299991  -1.134865
    H   0.000000   1.772057  -2.849007
    H   2.225803   2.299991  -1.134865
    H   1.537477   2.522010   1.467100
    H   3.332906   0.089713   0.051151
    H   2.225062   0.151571   2.560953
    H  -2.225062   0.151571   2.560953
    H   2.189758   0.028991  -2.623048
    H  -2.189758   0.028991  -2.623048
    H  -3.332906   0.089713   0.051151
    H  -2.158261  -2.346142  -1.364542
    H   0.000000  -1.654442  -2.913029
    H  -2.194382  -2.263953   1.321960
    H   0.000000  -1.601601   2.944807
    H   2.194382  -2.263953   1.321960
    H   2.158261  -2.346142  -1.364542
    H   0.000000  -3.348361   0.011403
    C   0.000000   0.718960   1.991301
    C   0.000000   2.088599  -0.360202
