40
B18C2H20
    B  -0.048086   2.162942  -0.027485
    B   1.453165   1.457013  -0.836336
    B  -0.018141   1.451316  -1.702579
    B  -1.532787   1.448495  -0.885206
    B  -1.483637   1.450370   0.834998
    B   1.636144   0.974822   0.945239
    B   0.001670   1.457834   1.676384
    B   1.094193   0.000000  -1.875259
    B  -1.075256   0.000000   1.885741
    B  -1.127940   0.000000  -1.850943
    B  -2.170069   0.000000  -0.053736
    B   1.453165  -1.457013  -0.836336
    B  -0.018141  -1.451316  -1.702579
    B  -1.532787  -1.448495  -0.885206
    B  -1.483637  -1.450370   0.834998
    B   1.636144  -0.974822   0.945239
    B   0.001670  -1.457834   1.676384
    B  -0.048086  -2.162942  -0.027485
    H   0.084807   3.334823   0.048694
    H   0.161585   2.224184   2.558947
    H  -2.258155   2.194252   1.331027
    H  -2.354218   2.153582  -1.359598
    H   0.023327   2.195813  -2.620807
    H   2.296954   2.223592  -1.140079
    H   2.530603   1.539649   1.461074
    H   3.159937   0.000000  -0.485388
    H   1.158591   0.000000   2.979505
    H  -1.590594   0.000000   2.947755
    H   1.755653   0.000000  -2.853011
    H  -1.652370   0.000000  -2.911561
    H  -3.350454   0.000000   0.024704
    H  -2.354218  -2.153582  -1.359598
    H   0.023327  -2.195813  -2.620807
    H  -2.258155  -2.194252   1.331027
    H   0.161585  -2.224184   2.558947
    H   2.530603  -1.539649   1.461074
    H   2.296954  -2.223592  -1.140079
    H   0.084807  -3.334823   0.048694
    C   0.726349   0.000000   1.988418
    C   2.085498   0.000000  -0.364501
