40
B18C2H20
    B   0.000000   2.167405   0.009202
    B   1.477495   1.458226  -0.860111
    B  -1.477495   1.458226  -0.860111
    B  -1.485019   1.391520   0.863901
    B   1.485019   1.391520   0.863901
    B   1.069238  -0.009123  -1.842587
    B   2.141375   0.002420  -0.110598
    B   0.974370  -0.018432   1.939297
    B  -0.974370  -0.018432   1.939297
    B  -1.069238  -0.009123  -1.842587
    B  -2.141375   0.002420  -0.110598
    B   1.479690  -1.457244  -0.862995
    B   0.000000  -1.496116  -1.719426
    B  -1.479690  -1.457244  -0.862995
    B  -1.496706  -1.388890   0.864565
    B   1.496706  -1.388890   0.864565
    B   0.000000  -1.487941   1.717356
    B   0.000000  -2.212970   0.008063
    H   0.000000   3.344253   0.025231
    H   0.000000   2.027559   2.423769
    H  -2.252398   2.113624   1.392411
    H  -2.220316   2.219549  -1.368301
    H   0.000000   1.994492  -2.442236
    H   2.220316   2.219549  -1.368301
    H   2.252398   2.113624   1.392411
    H   3.322427   0.049836  -0.107218
    H   1.545079   0.095290   2.964682
    H  -1.545079   0.095290   2.964682
    H   1.591814   0.092746  -2.895387
    H  -1.591814   0.092746  -2.895387
    H  -3.322427   0.049836  -0.107218
    H  -2.325702  -2.126714  -1.347540
    H   0.000000  -2.179199  -2.683133
    H  -2.360271  -2.028638   1.358232
    H   0.000000  -2.216448   2.648216
    H   2.360271  -2.028638   1.358232
    H   2.325702  -2.126714  -1.347540
    H   0.000000  -3.394744   0.024827
    C   0.000000   1.330063   1.596445
    C   0.000000   1.335304  -1.584745
