40
B18C2H20
    B   0.000000   2.184844   0.000826
    B   1.477064   1.439614  -0.858508
    B  -1.477064   1.439614  -0.858508
    B  -1.475551   1.447485   0.860602
    B   1.475551   1.447485   0.860602
    B   1.022576  -0.011306  -1.869364
    B   2.119643   0.002664   0.015678
    B   1.036304  -0.013468   1.855322
    B  -1.036304  -0.013468   1.855322
    B  -1.022576  -0.011306  -1.869364
    B  -2.119643   0.002664   0.015678
    B   1.484830  -1.435687  -0.862619
    B   0.000000  -1.492835  -1.721661
    B  -1.484830  -1.435687  -0.862619
    B  -1.481781  -1.446873   0.859572
    B   1.481781  -1.446873   0.859572
    B   0.000000  -1.496695   1.718940
    B   0.000000  -2.229595  -0.003068
    H   0.000000   3.361969   0.000149
    H   0.000000   1.991132   2.452397
    H  -2.233373   2.182542   1.384645
    H  -2.238536   2.170216  -1.383487
    H   0.000000   2.001310  -2.446147
    H   2.238536   2.170216  -1.383487
    H   2.233373   2.182542   1.384645
    H   3.300872   0.047734   0.015043
    H   1.584022   0.088279   2.895079
    H  -1.584022   0.088279   2.895079
    H   1.577812   0.094440  -2.904622
    H  -1.577812   0.094440  -2.904622
    H  -3.300872   0.047734   0.015043
    H  -2.344578  -2.078231  -1.358844
    H   0.000000  -2.183492  -2.680256
    H  -2.339005  -2.094637   1.353415
    H   0.000000  -2.182425   2.680945
    H   2.339005  -2.094637   1.353415
    H   2.344578  -2.078231  -1.358844
    H   0.000000  -3.411568  -0.006569
    C   0.000000   1.334303   1.592969
    C   0.000000   1.337508  -1.592080
