40
B18C2H20
    B   1.456534   1.456274  -0.833238
    B   0.000000   1.100830  -1.871642
    B  -1.456534   1.456274  -0.833238
    B  -0.974325   1.632433   0.949185
    B   0.974325   1.632433   0.949185
    B   1.450163  -0.012615  -1.702328
    B   2.161713  -0.046821  -0.027284
    B   1.456034  -0.003795   1.677636
    B  -1.456034  -0.003795   1.677636
    B  -1.450163  -0.012615  -1.702328
    B  -2.161713  -0.046821  -0.027284
    B   1.448278  -1.530104  -0.889813
    B   0.000000  -1.124670  -1.856309
    B  -1.448278  -1.530104  -0.889813
    B  -1.450277  -1.485953   0.831204
    B   1.450277  -1.485953   0.831204
    B   0.000000  -1.082321   1.882996
    B   0.000000  -2.169110  -0.059333
    H   0.000000   3.161839  -0.475434
    H   0.000000   1.151042   2.983265
    H  -1.536782   2.526058   1.469000
    H  -2.225186   2.299728  -1.132333
    H   0.000000   1.765950  -2.847022
    H   2.225186   2.299728  -1.132333
    H   1.536782   2.526058   1.469000
    H   3.333501   0.085940   0.050085
    H   2.224873   0.153486   2.558511
    H  -2.224873   0.153486   2.558511
    H   2.195160   0.029885  -2.620186
    H  -2.195160   0.029885  -2.620186
    H  -3.333501   0.085940   0.050085
    H  -2.153668  -2.349942  -1.366340
    H   0.000000  -1.643342  -2.919539
    H  -2.195102  -2.262847   1.322011
    H   0.000000  -1.601290   2.943353
    H   2.195102  -2.262847   1.322011
    H   2.153668  -2.349942  -1.366340
    H   0.000000  -3.349804   0.015081
    C   0.000000   0.720475   1.991503
    C   0.000000   2.086944  -0.358866
