40
B18C2H20
    B  -0.094661   2.205852  -0.006812
    B  -0.011809   1.417981  -1.707432
    B  -1.515264   1.459664  -0.862223
    B  -1.537973   1.366269   0.875913
    B  -0.007084   1.464517   1.698568
    B   1.162887  -0.016768  -1.780317
    B   2.134976  -0.036158  -0.018746
    B   1.057342  -0.013589   1.842002
    B  -0.953047   0.006200   1.943860
    B  -1.163294   0.004023  -1.825784
    B  -2.192590   0.005338  -0.147713
    B   1.492113  -1.503434  -0.851546
    B   0.001095  -1.397920  -1.721111
    B  -1.486658  -1.456907  -0.855572
    B  -1.512006  -1.358082   0.870849
    B   1.480592  -1.509731   0.856395
    B   0.001477  -1.455220   1.710358
    B  -0.003612  -2.214957  -0.003309
    H   0.110098   3.365346  -0.002079
    H   0.123927   2.230266   2.585920
    H  -2.335732   2.076645   1.382312
    H  -2.272255   2.237660  -1.331926
    H   0.129526   2.129368  -2.636877
    H   2.117936   2.008564  -1.155836
    H   2.119915   1.993506   1.143887
    H   3.298509   0.143162   0.004733
    H   1.754112   0.107991   2.785896
    H  -1.492812   0.031819   2.995341
    H   1.810480   0.111910  -2.757553
    H  -1.681488   0.030358  -2.888180
    H  -3.374898   0.006319  -0.144535
    H  -2.273402  -2.206964  -1.321069
    H   0.046933  -2.035767  -2.716247
    H  -2.338586  -2.037351   1.374929
    H   0.026985  -2.130589   2.681444
    H   2.348106  -2.147633   1.344448
    H   2.351525  -2.149581  -1.343680
    H  -0.030487  -3.396562  -0.005269
    C   1.358915   1.333403  -0.789817
    C   1.350210   1.331047   0.777049
