40
B18C2H20
    B   1.479026   1.439088  -0.854318
    B   0.000000   1.327343  -1.750621
    B  -1.479026   1.439088  -0.854318
    B  -1.513721   1.331748   0.874138
    B   1.513721   1.331748   0.874138
    B   0.000000   1.438866   1.709061
    B   1.253150   0.000000  -1.821780
    B   2.201289   0.000000  -0.170794
    B   0.953727   0.000000   1.993972
    B  -0.953727   0.000000   1.993972
    B  -1.253150   0.000000  -1.821780
    B  -2.201289   0.000000  -0.170794
    B   1.479026  -1.439088  -0.854318
    B   0.000000  -1.327343  -1.750621
    B  -1.479026  -1.439088  -0.854318
    B  -1.513721  -1.331748   0.874138
    B   1.513721  -1.331748   0.874138
    B   0.000000  -1.438866   1.709061
    H   0.000000   3.077132   0.000272
    H   0.000000   2.276903   2.538967
    H  -2.282425   2.109035   1.317520
    H  -2.197121   2.277679  -1.269221
    H   0.000000   2.104457  -2.638318
    H   2.197121   2.277679  -1.269221
    H   2.282425   2.109035   1.317520
    H   3.381991   0.000000  -0.131905
    H   1.577793   0.000000   2.996946
    H  -1.577793   0.000000   2.996946
    H   1.812152   0.000000  -2.862426
    H  -1.812152   0.000000  -2.862426
    H  -3.381991   0.000000  -0.131905
    H  -2.197121  -2.277679  -1.269221
    H   0.000000  -2.104457  -2.638318
    H  -2.282425  -2.109035   1.317520
    H   0.000000  -2.276903   2.538967
    H   2.282425  -2.109035   1.317520
    H   2.197121  -2.277679  -1.269221
    H   0.000000  -3.077132   0.000272
    C   0.000000   1.996152   0.000524
    C   0.000000  -1.996152   0.000524
