40
B18C2H20
    B   0.000000   2.073564   0.017995
    B   1.505465   1.433157  -0.881936
    B   0.000000   1.393903  -1.709408
    B  -1.505465   1.433157  -0.881936
    B  -1.560265   1.140641   0.873911
    B   1.560265   1.140641   0.873911
    B   0.000000   1.449734   1.701042
    B   1.234143   0.000000  -1.883635
    B   2.306376   0.000000  -0.388410
    B  -1.234143   0.000000  -1.883635
    B  -2.306376   0.000000  -0.388410
    B   1.505465  -1.433157  -0.881936
    B   0.000000  -1.393903  -1.709408
    B  -1.505465  -1.433157  -0.881936
    B  -1.560265  -1.140641   0.873911
    B   1.560265  -1.140641   0.873911
    B   0.000000  -1.449734   1.701042
    B   0.000000  -2.073564   0.017995
    H   0.000000   3.251206   0.116291
    H   0.000000   2.167159   2.633987
    H  -2.365698   1.765756   1.471266
    H  -2.251877   2.294015  -1.202353
    H   0.000000   2.169074  -2.604011
    H   2.251877   2.294015  -1.202353
    H   2.365698   1.765756   1.471266
    H   3.486864   0.000000  -0.336402
    H   1.264569   0.000000   2.939674
    H  -1.264569   0.000000   2.939674
    H   1.726845   0.000000  -2.958343
    H  -1.726845   0.000000  -2.958343
    H  -3.486864   0.000000  -0.336402
    H  -2.251877  -2.294015  -1.202353
    H   0.000000  -2.169074  -2.604011
    H  -2.365698  -1.765756   1.471266
    H   0.000000  -2.167159   2.633987
    H   2.365698  -1.765756   1.471266
    H   2.251877  -2.294015  -1.202353
    H   0.000000  -3.251206   0.116291
    C  -0.832020   0.000000   1.949580
    C   0.832020   0.000000   1.949580
