40
B18C2H20
    B   1.406245   1.468288  -0.861581
    B   0.000000   1.206850  -1.928748
    B  -1.406245   1.468288  -0.861581
    B  -1.445719   1.361035   0.871489
    B   1.445719   1.361035   0.871489
    B   1.300784   0.005280  -1.812011
    B   2.175892   0.024758  -0.141885
    B   0.961751  -0.046056   2.000688
    B  -0.961751  -0.046056   2.000688
    B  -1.300784   0.005280  -1.812011
    B  -2.175892   0.024758  -0.141885
    B   1.496724  -1.437514  -0.866748
    B   0.000000  -1.348468  -1.751232
    B  -1.496724  -1.437514  -0.866748
    B  -1.498689  -1.368962   0.864304
    B   1.498689  -1.368962   0.864304
    B   0.000000  -1.506375   1.714965
    B   0.000000  -2.158944   0.001700
    H   0.000000   3.085243   0.048388
    H   0.000000   2.022244   2.470871
    H  -2.142018   2.176325   1.360501
    H  -2.120514   2.338410  -1.219093
    H   0.000000   2.003867  -2.798758
    H   2.120514   2.338410  -1.219093
    H   2.142018   2.176325   1.360501
    H   3.354931   0.079717  -0.087527
    H   1.600724   0.097369   2.981761
    H  -1.600724   0.097369   2.981761
    H   1.938496   0.024351  -2.809095
    H  -1.938496   0.024351  -2.809095
    H  -3.354931   0.079717  -0.087527
    H  -2.282429  -2.212085  -1.291474
    H   0.000000  -2.002867  -2.735409
    H  -2.350677  -2.012397   1.373804
    H   0.000000  -2.233236   2.648823
    H   2.350677  -2.012397   1.373804
    H   2.282429  -2.212085  -1.291474
    H   0.000000  -3.340416  -0.023249
    C   0.000000   1.265223   1.698981
    C   0.000000   2.009842  -0.072326
