40
B18C2H20
    B   0.000000   2.158331  -0.031034
    B   1.483154   1.457470  -0.868001
    B   0.000000   1.227779  -1.809778
    B  -1.483154   1.457470  -0.868001
    B  -1.475358   1.412023   0.844053
    B   1.475358   1.412023   0.844053
    B   1.351591   0.000000  -1.798463
    B   2.180528   0.000000  -0.102382
    B   0.954415   0.000000   1.926508
    B  -0.954415   0.000000   1.926508
    B  -1.351591   0.000000  -1.798463
    B  -2.180528   0.000000  -0.102382
    B   1.483154  -1.457470  -0.868001
    B   0.000000  -1.227779  -1.809778
    B  -1.483154  -1.457470  -0.868001
    B  -1.475358  -1.412023   0.844053
    B   1.475358  -1.412023   0.844053
    B   0.000000  -2.158331  -0.031034
    H   0.000000   3.332779   0.083636
    H   0.000000   2.026164   2.447959
    H  -2.238921   2.090552   1.434366
    H  -2.253076   2.251758  -1.286170
    H   0.000000   1.911104  -2.775330
    H   2.253076   2.251758  -1.286170
    H   2.238921   2.090552   1.434366
    H   3.354388   0.000000   0.036668
    H   1.501916   0.000000   2.967759
    H  -1.501916   0.000000   2.967759
    H   1.984326   0.000000  -2.797151
    H  -1.984326   0.000000  -2.797151
    H  -3.354388   0.000000   0.036668
    H  -2.253076  -2.251758  -1.286170
    H   0.000000  -1.911104  -2.775330
    H  -2.238921  -2.090552   1.434366
    H   0.000000  -2.026164   2.447959
    H   2.238921  -2.090552   1.434366
    H   2.253076  -2.251758  -1.286170
    H   0.000000  -3.332779   0.083636
    C   0.000000   1.350859   1.603248
    C   0.000000  -1.350859   1.603248
