40
B18C2H20
    B   1.457285   1.456129  -0.831207
    B   0.000000   1.098969  -1.871010
    B  -1.457285   1.456129  -0.831207
    B  -0.972887   1.635014   0.951830
    B   0.972887   1.635014   0.951830
    B   1.451657  -0.012094  -1.701710
    B   2.165599  -0.049541  -0.030790
    B   1.457907  -0.002388   1.672995
    B  -1.457907  -0.002388   1.672995
    B  -1.451657  -0.012094  -1.701710
    B  -2.165599  -0.049541  -0.030790
    B   1.450696  -1.530947  -0.889954
    B   0.000000  -1.122808  -1.850357
    B  -1.450696  -1.530947  -0.889954
    B  -1.455810  -1.484738   0.829990
    B   1.455810  -1.484738   0.829990
    B   0.000000  -1.085133   1.875689
    B   0.000000  -2.164067  -0.050489
    H   0.000000   3.161896  -0.476135
    H   0.000000   1.145321   2.984721
    H  -1.535150   2.529236   1.470755
    H  -2.224666   2.300757  -1.130677
    H   0.000000   1.763275  -2.847085
    H   2.224666   2.300757  -1.130677
    H   1.535150   2.529236   1.470755
    H   3.337295   0.083250   0.048226
    H   2.224511   0.154003   2.556251
    H  -2.224511   0.154003   2.556251
    H   2.194198   0.030628  -2.621519
    H  -2.194198   0.030628  -2.621519
    H  -3.337295   0.083250   0.048226
    H  -2.151188  -2.353354  -1.369084
    H   0.000000  -1.642339  -2.913397
    H  -2.199102  -2.261174   1.323822
    H   0.000000  -1.607043   2.934593
    H   2.199102  -2.261174   1.323822
    H   2.151188  -2.353354  -1.369084
    H   0.000000  -3.344797   0.023878
    C   0.000000   0.720106   1.990640
    C   0.000000   2.087061  -0.358633
