40
B18C2H20
    B   0.000000   2.072353   0.016653
    B   1.506106   1.434868  -0.882494
    B   0.000000   1.399453  -1.707442
    B  -1.506106   1.434868  -0.882494
    B  -1.561868   1.133871   0.875319
    B   1.561868   1.133871   0.875319
    B   0.000000   1.449374   1.698619
    B   1.229315   0.000000  -1.883972
    B   2.304092   0.000000  -0.389079
    B  -1.229315   0.000000  -1.883972
    B  -2.304092   0.000000  -0.389079
    B   1.506106  -1.434868  -0.882494
    B   0.000000  -1.399453  -1.707442
    B  -1.506106  -1.434868  -0.882494
    B  -1.561868  -1.133871   0.875319
    B   1.561868  -1.133871   0.875319
    B   0.000000  -1.449374   1.698619
    B   0.000000  -2.072353   0.016653
    H   0.000000   3.249708   0.119442
    H   0.000000   2.170589   2.628595
    H  -2.367123   1.760238   1.471524
    H  -2.254444   2.294233  -1.201919
    H   0.000000   2.174975  -2.601689
    H   2.254444   2.294233  -1.201919
    H   2.367123   1.760238   1.471524
    H   3.484908   0.000000  -0.342949
    H   1.262712   0.000000   2.942875
    H  -1.262712   0.000000   2.942875
    H   1.720220   0.000000  -2.959504
    H  -1.720220   0.000000  -2.959504
    H  -3.484908   0.000000  -0.342949
    H  -2.254444  -2.294233  -1.201919
    H   0.000000  -2.174975  -2.601689
    H  -2.367123  -1.760238   1.471524
    H   0.000000  -2.170589   2.628595
    H   2.367123  -1.760238   1.471524
    H   2.254444  -2.294233  -1.201919
    H   0.000000  -3.249708   0.119442
    C  -0.828171   0.000000   1.953725
    C   0.828171   0.000000   1.953725
