40
B18C2H20
    B   0.000000   2.178782   0.004519
    B   1.476958   1.450304  -0.858977
    B  -1.476958   1.450304  -0.858977
    B  -1.480202   1.424889   0.862047
    B   1.480202   1.424889   0.862047
    B   1.045009  -0.010099  -1.853631
    B   2.128131   0.002611  -0.040840
    B   1.009438  -0.015440   1.889669
    B  -1.009438  -0.015440   1.889669
    B  -1.045009  -0.010099  -1.853631
    B  -2.128131   0.002611  -0.040840
    B   1.481929  -1.447616  -0.862548
    B   0.000000  -1.494255  -1.720988
    B  -1.481929  -1.447616  -0.862548
    B  -1.488749  -1.424045   0.861700
    B   1.488749  -1.424045   0.861700
    B   0.000000  -1.494015   1.718505
    B   0.000000  -2.224065   0.001472
    H   0.000000   3.355835   0.010472
    H   0.000000   2.007309   2.441015
    H  -2.242613   2.153425   1.388640
    H  -2.230243   2.193683  -1.377908
    H   0.000000   1.996601  -2.445483
    H   2.230243   2.193683  -1.377908
    H   2.242613   2.153425   1.388640
    H   3.309334   0.047977  -0.038746
    H   1.568071   0.091107   2.922864
    H  -1.568071   0.091107   2.922864
    H   1.585244   0.093257  -2.897191
    H  -1.585244   0.093257  -2.897191
    H  -3.309334   0.047977  -0.038746
    H  -2.336021  -2.100966  -1.354605
    H   0.000000  -2.179060  -2.683603
    H  -2.349522  -2.066819   1.355972
    H   0.000000  -2.196553   2.668614
    H   2.349522  -2.066819   1.355972
    H   2.336021  -2.100966  -1.354605
    H   0.000000  -3.406015   0.006990
    C   0.000000   1.334170   1.594220
    C   0.000000   1.336730  -1.588357
