40
B18C2H20
    B   0.000000   2.181278   0.002825
    B   1.477160   1.445237  -0.858837
    B  -1.477160   1.445237  -0.858837
    B  -1.478411   1.434974   0.861450
    B   1.478411   1.434974   0.861450
    B   1.034728  -0.010688  -1.861143
    B   2.124984   0.002614  -0.015206
    B   1.021544  -0.014544   1.874563
    B  -1.021544  -0.014544   1.874563
    B  -1.034728  -0.010688  -1.861143
    B  -2.124984   0.002614  -0.015206
    B   1.483285  -1.442090  -0.862604
    B   0.000000  -1.493518  -1.721337
    B  -1.483285  -1.442090  -0.862604
    B  -1.485777  -1.434314   0.860796
    B   1.485777  -1.434314   0.860796
    B   0.000000  -1.495212   1.718684
    B   0.000000  -2.226439  -0.000586
    H   0.000000   3.358364   0.005825
    H   0.000000   2.000580   2.445676
    H  -2.238595   2.166614   1.386906
    H  -2.233951   2.183087  -1.380509
    H   0.000000   1.999141  -2.445322
    H   2.233951   2.183087  -1.380509
    H   2.238595   2.166614   1.386906
    H   3.306202   0.047804  -0.014375
    H   1.575212   0.089901   2.910754
    H  -1.575212   0.089901   2.910754
    H   1.581597   0.093867  -2.901048
    H  -1.581597   0.093867  -2.901048
    H  -3.306202   0.047804  -0.014375
    H  -2.339817  -2.090764  -1.356534
    H   0.000000  -2.181317  -2.681892
    H  -2.344905  -2.079481   1.354782
    H   0.000000  -2.190503   2.673975
    H   2.344905  -2.079481   1.354782
    H   2.339817  -2.090764  -1.356534
    H   0.000000  -3.408402   0.000798
    C   0.000000   1.334395   1.593431
    C   0.000000   1.337194  -1.589800
