40
B18C2H20
    B   0.000000   2.089372   0.030829
    B   1.500440   1.432026  -0.878677
    B   0.000000   1.339667  -1.745083
    B  -1.500440   1.432026  -0.878677
    B  -1.532960   1.251230   0.858000
    B   1.532960   1.251230   0.858000
    B   0.000000   1.383601   1.713385
    B   1.274545   0.000000  -1.870460
    B   2.277424   0.000000  -0.293642
    B  -1.274545   0.000000  -1.870460
    B  -2.277424   0.000000  -0.293642
    B   1.500440  -1.432026  -0.878677
    B   0.000000  -1.339667  -1.745083
    B  -1.500440  -1.432026  -0.878677
    B  -1.532960  -1.251230   0.858000
    B   1.532960  -1.251230   0.858000
    B   0.000000  -1.383601   1.713385
    B   0.000000  -2.089372   0.030829
    H   0.000000   3.266336   0.121770
    H   0.000000   2.071672   2.669192
    H  -2.306733   1.901495   1.467028
    H  -2.254297   2.273876  -1.226862
    H   0.000000   2.090602  -2.658728
    H   2.254297   2.273876  -1.226862
    H   2.306733   1.901495   1.467028
    H   3.455586   0.000000  -0.205928
    H   1.362942   0.000000   2.853360
    H  -1.362942   0.000000   2.853360
    H   1.821647   0.000000  -2.917601
    H  -1.821647   0.000000  -2.917601
    H  -3.455586   0.000000  -0.205928
    H  -2.254297  -2.273876  -1.226862
    H   0.000000  -2.090602  -2.658728
    H  -2.306733  -1.901495   1.467028
    H   0.000000  -2.071672   2.669192
    H   2.306733  -1.901495   1.467028
    H   2.254297  -2.273876  -1.226862
    H   0.000000  -3.266336   0.121770
    C  -0.931385   0.000000   1.864065
    C   0.931385   0.000000   1.864065
