40
B18C2H20
    B  -0.007834   2.117162  -0.004766
    B   0.004190   1.328826  -1.732620
    B  -1.482349   1.456359  -0.855809
    B  -1.496446   1.332938   0.869271
    B   1.478387   1.324156   0.853630
    B   1.268263  -0.001075  -1.810700
    B   2.193661  -0.001619  -0.188042
    B   0.934068  -0.001506   1.994362
    B  -0.936944  -0.001230   2.000709
    B  -1.264130   0.004791  -1.822684
    B  -2.208790   0.004789  -0.179246
    B   1.493159  -1.452253  -0.861744
    B   0.001987  -1.334822  -1.743626
    B  -1.491040  -1.448048  -0.860804
    B  -1.507169  -1.339000   0.872483
    B   1.504279  -1.339700   0.868546
    B   0.000610  -1.451823   1.724721
    B   0.001423  -2.147868   0.000967
    H   0.030984   3.294204   0.016889
    H   0.012179   2.108979   2.439450
    H  -2.284744   2.053614   1.372498
    H  -2.229190   2.264297  -1.287139
    H   0.046006   2.048720  -2.667583
    H   2.117185   2.110176  -1.208698
    H   2.287257   2.042399   1.320655
    H   3.371323   0.056945  -0.154790
    H   1.551369   0.056940   2.997747
    H  -1.529016   0.054209   3.019574
    H   1.856479   0.054579  -2.831751
    H  -1.815802   0.025505  -2.867585
    H  -3.389456   0.025283  -0.132675
    H  -2.260749  -2.228384  -1.305518
    H   0.013220  -2.012685  -2.712657
    H  -2.340454  -2.017395   1.366520
    H   0.010707  -2.219300   2.624121
    H   2.355254  -1.997052   1.359772
    H   2.276274  -2.220690  -1.302484
    H   0.008359  -3.329521   0.004390
    C  -0.001540   1.389401   1.651732
    C   1.429031   1.389699  -0.826847
