40
B18C2H20
    B  -0.023908   2.164976  -0.013749
    B   1.451002   1.468953  -0.822246
    B  -0.010266   1.336645  -1.737845
    B  -1.516296   1.447171  -0.875319
    B  -1.508874   1.340856   0.859212
    B   0.013433   1.468812   1.667910
    B   1.262788   0.000000  -1.765150
    B   2.138435   0.000000  -0.079941
    B   0.999656   0.000000   1.891842
    B  -0.900267   0.000000   1.972990
    B  -1.274299   0.000000  -1.836724
    B  -2.226690   0.000000  -0.180787
    B   1.451002  -1.468953  -0.822246
    B  -0.010266  -1.336645  -1.737845
    B  -1.516296  -1.447171  -0.875319
    B  -1.508874  -1.340856   0.859212
    B   0.013433  -1.468812   1.667910
    B  -0.023908  -2.164976  -0.013749
    H   0.046184   3.340054   0.025807
    H   0.111264   2.219607   2.572193
    H  -2.305225   2.038357   1.382713
    H  -2.263051   2.254586  -1.307104
    H   0.044779   2.033348  -2.689845
    H   2.281999   2.220939  -1.189607
    H   2.150609   1.968435   1.241827
    H   3.307891   0.000000   0.049211
    H   1.695871   0.000000   2.840278
    H  -1.436433   0.000000   3.023108
    H   1.905517   0.000000  -2.753653
    H  -1.808150   0.000000  -2.890058
    H  -3.405724   0.000000  -0.114242
    H  -2.263051  -2.254586  -1.307104
    H   0.044779  -2.033348  -2.689845
    H  -2.305225  -2.038357   1.382713
    H   0.111264  -2.219607   2.572193
    H   2.150609  -1.968435   1.241827
    H   2.281999  -2.220939  -1.189607
    H   0.046184  -3.340054   0.025807
    C   1.399054  -1.328263   0.807751
    C   1.399054   1.328263   0.807751
