40
B18C2H20
    B   0.000000   2.150175   0.016579
    B   1.480721   1.462339  -0.862899
    B  -1.480721   1.462339  -0.862899
    B  -1.497444   1.347752   0.867508
    B   1.497444   1.347752   0.867508
    B   1.084252  -0.009790  -1.840187
    B   2.159161   0.002194  -0.174379
    B   0.949639  -0.020114   1.986905
    B  -0.949639  -0.020114   1.986905
    B  -1.084252  -0.009790  -1.840187
    B  -2.159161   0.002194  -0.174379
    B   1.478658  -1.462733  -0.863470
    B   0.000000  -1.497941  -1.717219
    B  -1.478658  -1.462733  -0.863470
    B  -1.507278  -1.348141   0.868918
    B   1.507278  -1.348141   0.868918
    B   0.000000  -1.480047   1.719334
    B   0.000000  -2.195729   0.011152
    H   0.000000   3.326691   0.041002
    H   0.000000   2.047094   2.400598
    H  -2.266256   2.067596   1.397429
    H  -2.212759   2.239967  -1.362067
    H   0.000000   2.003288  -2.428295
    H   2.212759   2.239967  -1.362067
    H   2.266256   2.067596   1.397429
    H   3.340293   0.048904  -0.172324
    H   1.526831   0.100443   3.007628
    H  -1.526831   0.100443   3.007628
    H   1.584933   0.093114  -2.903596
    H  -1.584933   0.093114  -2.903596
    H  -3.340293   0.048904  -0.172324
    H  -2.317060  -2.148116  -1.339255
    H   0.000000  -2.184714  -2.678278
    H  -2.374989  -1.983531   1.361358
    H   0.000000  -2.235195   2.629013
    H   2.374989  -1.983531   1.361358
    H   2.317060  -2.148116  -1.339255
    H   0.000000  -3.377202   0.042404
    C   0.000000   1.324721   1.595100
    C   0.000000   1.339092  -1.574261
