40
B18C2H20
    B   0.029003   2.078419   0.016824
    B   1.480408   1.403406  -0.895825
    B  -0.011820   1.329831  -1.754886
    B  -1.500239   1.447200  -0.865986
    B  -1.524529   1.333363   0.866564
    B   1.512919   1.128991   0.873455
    B  -0.035723   1.402992   1.730221
    B   1.248367   0.000000  -1.905612
    B  -1.029158   0.000000   2.030700
    B  -1.313599   0.000000  -1.838454
    B  -2.248944   0.000000  -0.214800
    B   1.480408  -1.403406  -0.895825
    B  -0.011820  -1.329831  -1.754886
    B  -1.500239  -1.447200  -0.865986
    B  -1.524529  -1.333363   0.866564
    B   1.512919  -1.128991   0.873455
    B  -0.035723  -1.402992   1.730221
    B   0.029003  -2.078419   0.016824
    H   0.126263   3.253346   0.072022
    H   0.130944   2.175863   2.605825
    H  -2.294662   2.084363   1.357892
    H  -2.226391   2.279235  -1.285816
    H   0.027911   2.079636  -2.668543
    H   2.321350   2.176962  -1.189252
    H   2.413552   1.679178   1.393946
    H   3.159820   0.000000  -0.325491
    H   1.296690   0.000000   2.898948
    H  -1.505817   0.000000   3.108633
    H   1.943751   0.000000  -2.857177
    H  -1.859903   0.000000  -2.886183
    H  -3.429290   0.000000  -0.162284
    H  -2.226391  -2.279235  -1.285816
    H   0.027911  -2.079636  -2.668543
    H  -2.294662  -2.084363   1.357892
    H   0.130944  -2.175863   2.605825
    H   2.413552  -1.679178   1.393946
    H   2.321350  -2.176962  -1.189252
    H   0.126263  -3.253346   0.072022
    C   0.758655   0.000000   1.964343
    C   2.081458   0.000000  -0.325234
