40
B18C2H20
    B  -0.049061   2.158818  -0.028123
    B   1.452709   1.452192  -0.836193
    B  -0.017827   1.433853  -1.705351
    B  -1.534208   1.455702  -0.886024
    B  -1.486136   1.436152   0.836957
    B   1.640497   0.976318   0.947236
    B   0.001521   1.453087   1.675452
    B   1.118914   0.000000  -1.867465
    B  -1.059818   0.000000   1.900462
    B  -1.170953   0.000000  -1.841401
    B  -2.180641   0.000000  -0.091672
    B   1.452709  -1.452192  -0.836193
    B  -0.017827  -1.433853  -1.705351
    B  -1.534208  -1.455702  -0.886024
    B  -1.486136  -1.436152   0.836957
    B   1.640497  -0.976318   0.947236
    B   0.001521  -1.453087   1.675452
    B  -0.049061  -2.158818  -0.028123
    H   0.078519   3.331191   0.045517
    H   0.158031   2.225935   2.553095
    H  -2.262831   2.177213   1.333930
    H  -2.344799   2.176996  -1.354650
    H   0.023649   2.174948  -2.626478
    H   2.290322   2.225310  -1.140827
    H   2.534814   1.541147   1.463100
    H   3.168024   0.000000  -0.477489
    H   1.168588   0.000000   2.982536
    H  -1.574550   0.000000   2.962908
    H   1.780313   0.000000  -2.845329
    H  -1.687020   0.000000  -2.905861
    H  -3.360434   0.000000  -0.004147
    H  -2.344799  -2.176996  -1.354650
    H   0.023649  -2.174948  -2.626478
    H  -2.262831  -2.177213   1.333930
    H   0.158031  -2.225935   2.553095
    H   2.534814  -1.541147   1.463100
    H   2.290322  -2.225310  -1.140827
    H   0.078519  -3.331191   0.045517
    C   0.733868   0.000000   1.992517
    C   2.093308   0.000000  -0.360066
