40
B18C2H20
    B   0.000000   2.133298   0.006930
    B   1.440486   1.457336  -0.858859
    B  -1.440486   1.457336  -0.858859
    B  -1.462854   1.342840   0.867510
    B   1.462854   1.342840   0.867510
    B   1.214731  -0.003806  -1.822452
    B   2.174946   0.009685  -0.189225
    B   0.932100  -0.010549   2.001023
    B  -0.932100  -0.010549   2.001023
    B  -1.214731  -0.003806  -1.822452
    B  -2.174946   0.009685  -0.189225
    B   1.474121  -1.461648  -0.862430
    B   0.000000  -1.393436  -1.741818
    B  -1.474121  -1.461648  -0.862430
    B  -1.503452  -1.341763   0.869642
    B   1.503452  -1.341763   0.869642
    B   0.000000  -1.467933   1.726461
    B   0.000000  -2.169342   0.010151
    H   0.000000   3.308387   0.022811
    H   0.000000   2.062226   2.450795
    H  -2.249272   2.066358   1.363398
    H  -2.160181   2.263212  -1.329927
    H   0.000000   1.911446  -2.508479
    H   2.160181   2.263212  -1.329927
    H   2.249272   2.066358   1.363398
    H   3.352564   0.064005  -0.160567
    H   1.537193   0.072059   3.007991
    H  -1.537193   0.072059   3.007991
    H   1.747178   0.072593  -2.870946
    H  -1.747178   0.072593  -2.870946
    H  -3.352564   0.064005  -0.160567
    H  -2.266984  -2.202975  -1.328402
    H   0.000000  -2.072389  -2.708216
    H  -2.357264  -1.994655   1.359192
    H   0.000000  -2.230865   2.627874
    H   2.357264  -1.994655   1.359192
    H   2.266984  -2.202975  -1.328402
    H   0.000000  -3.349439   0.022474
    C   0.000000   1.342973   1.650465
    C   0.000000   1.259690  -1.651072
