40
B18C2H20
    B   0.000000   2.149500  -0.029291
    B   1.481636   1.455813  -0.868556
    B   0.000000   1.185917  -1.817373
    B  -1.481636   1.455813  -0.868556
    B  -1.475243   1.407193   0.844262
    B   1.475243   1.407193   0.844262
    B   1.382574   0.000000  -1.793286
    B   2.187693   0.000000  -0.110542
    B   0.949508   0.000000   1.937761
    B  -0.949508   0.000000   1.937761
    B  -1.382574   0.000000  -1.793286
    B  -2.187693   0.000000  -0.110542
    B   1.481636  -1.455813  -0.868556
    B   0.000000  -1.185917  -1.817373
    B  -1.481636  -1.455813  -0.868556
    B  -1.475243  -1.407193   0.844262
    B   1.475243  -1.407193   0.844262
    B   0.000000  -2.149500  -0.029291
    H   0.000000   3.324649   0.077601
    H   0.000000   2.028715   2.448793
    H  -2.241446   2.088297   1.428159
    H  -2.240339   2.262135  -1.284235
    H   0.000000   1.864311  -2.786903
    H   2.240339   2.262135  -1.284235
    H   2.241446   2.088297   1.428159
    H   3.360424   0.000000   0.038469
    H   1.502083   0.000000   2.976220
    H  -1.502083   0.000000   2.976220
    H   2.022867   0.000000  -2.786989
    H  -2.022867   0.000000  -2.786989
    H  -3.360424   0.000000   0.038469
    H  -2.240339  -2.262135  -1.284235
    H   0.000000  -1.864311  -2.786903
    H  -2.241446  -2.088297   1.428159
    H   0.000000  -2.028715   2.448793
    H   2.241446  -2.088297   1.428159
    H   2.240339  -2.262135  -1.284235
    H   0.000000  -3.324649   0.077601
    C   0.000000   1.350443   1.606413
    C   0.000000  -1.350443   1.606413
