40
B18C2H20
    B   0.020267   2.153237  -0.011594
    B   1.512584   1.461343  -0.873132
    B   0.012752   1.340427  -1.732367
    B  -1.460614   1.449297  -0.831921
    B   1.505404   1.345014   0.854579
    B  -0.009655   1.449297   1.681169
    B   1.271678   0.014045  -1.804878
    B   2.198029   0.014262  -0.194347
    B   0.920909  -0.001346   1.979218
    B  -0.975601  -0.007229   1.955087
    B  -1.257918  -0.001384  -1.786140
    B  -2.181339  -0.007197  -0.132443
    B   0.004833  -1.327998  -1.710832
    B  -1.484124  -1.467159  -0.834226
    B  -1.523261  -1.392048   0.879402
    B   1.483046  -1.331919   0.850217
    B  -0.019468  -1.466868   1.702317
    B  -0.001898  -2.145751   0.000861
    H  -0.040376   3.327879   0.022354
    H  -0.076062   2.235333   2.556961
    H  -2.145941   1.914323   1.239091
    H  -2.251066   2.236512  -1.212360
    H  -0.006869   2.013908  -2.700744
    H   2.278293   2.242542  -1.315990
    H   2.333602   2.019407   1.355599
    H   3.372341  -0.065507  -0.177521
    H   1.532024   0.005927   2.987113
    H  -1.625341   0.059628   2.935253
    H   1.846123  -0.065779  -2.829228
    H  -1.826450   0.006050  -2.818661
    H  -3.355050   0.059800  -0.059477
    H  -2.261496  -2.229291  -1.289547
    H   0.060890  -2.029582  -2.655652
    H  -2.344904  -2.093933   1.354074
    H  -0.013908  -2.228086   2.603973
    H   2.328728  -2.034286   1.273975
    H   2.100410  -2.057044  -1.213017
    H   0.076251  -3.320036  -0.045171
    C  -1.401501   1.268246   0.809170
    C   1.404677  -1.344033  -0.810893
