40
B18C2H20
    B   1.429003   1.463514  -0.863139
    B   0.000000   1.241196  -1.886960
    B  -1.429003   1.463514  -0.863139
    B  -1.468049   1.343861   0.871268
    B   1.468049   1.343861   0.871268
    B   1.284647   0.002036  -1.818277
    B   2.185394   0.018115  -0.154662
    B   0.954878  -0.042485   2.004935
    B  -0.954878  -0.042485   2.004935
    B  -1.284647   0.002036  -1.818277
    B  -2.185394   0.018115  -0.154662
    B   1.495350  -1.440808  -0.865897
    B   0.000000  -1.357763  -1.745579
    B  -1.495350  -1.440808  -0.865897
    B  -1.502443  -1.362731   0.866062
    B   1.502443  -1.362731   0.866062
    B   0.000000  -1.502533   1.715597
    B   0.000000  -2.158773   0.001598
    H   0.000000   3.072859   0.048361
    H   0.000000   2.038458   2.434199
    H  -2.159886   2.160157   1.365251
    H  -2.136314   2.340126  -1.217668
    H   0.000000   2.048619  -2.747818
    H   2.136314   2.340126  -1.217668
    H   2.159886   2.160157   1.365251
    H   3.364961   0.073094  -0.101539
    H   1.583292   0.109356   2.991804
    H  -1.583292   0.109356   2.991804
    H   1.903707   0.025277  -2.826840
    H  -1.903707   0.025277  -2.826840
    H  -3.364961   0.073094  -0.101539
    H  -2.282689  -2.211958  -1.294365
    H   0.000000  -2.024815  -2.721508
    H  -2.356866  -2.001617   1.377376
    H   0.000000  -2.236689   2.643581
    H   2.356866  -2.001617   1.377376
    H   2.282689  -2.211958  -1.294365
    H   0.000000  -3.340533  -0.013119
    C   0.000000   1.270467   1.674081
    C   0.000000   1.997633  -0.070781
