40
B18C2H20
    B  -0.007807   2.155057  -0.004442
    B   1.462826   1.463209  -0.826915
    B  -0.006088   1.338070  -1.734470
    B  -1.505294   1.449704  -0.868994
    B  -1.503584   1.342303   0.861079
    B   0.015315   1.462984   1.680626
    B   1.263923   0.000000  -1.781096
    B   2.163842   0.000000  -0.120178
    B   0.977729   0.000000   1.934418
    B  -0.913536   0.000000   1.982049
    B  -1.273879   0.000000  -1.830706
    B  -2.220768   0.000000  -0.183525
    B   1.462826  -1.463209  -0.826915
    B  -0.006088  -1.338070  -1.734470
    B  -1.505294  -1.449704  -0.868994
    B  -1.503584  -1.342303   0.861079
    B   0.015315  -1.462984   1.680626
    B  -0.007807  -2.155057  -0.004442
    H   0.036675   3.333356   0.020439
    H   0.079001   2.231914   2.574526
    H  -2.309088   2.043821   1.367828
    H  -2.258744   2.250654  -1.304446
    H   0.029991   2.038909  -2.685887
    H   2.267862   2.233168  -1.218578
    H   2.183066   1.956144   1.260374
    H   3.339142   0.000000  -0.031980
    H   1.641459   0.000000   2.908272
    H  -1.479289   0.000000   3.017789
    H   1.879802   0.000000  -2.787840
    H  -1.821029   0.000000  -2.878681
    H  -3.401867   0.000000  -0.131080
    H  -2.258744  -2.250654  -1.304446
    H   0.029991  -2.038909  -2.685887
    H  -2.309088  -2.043821   1.367828
    H   0.079001  -2.231914   2.574526
    H   2.183066  -1.956144   1.260374
    H   2.267862  -2.233168  -1.218578
    H   0.036675  -3.333356   0.020439
    C   1.438104  -1.325404   0.830274
    C   1.438104   1.325404   0.830274
