40
B18C2H20
    B   1.460993   1.483750  -0.857689
    B   0.000000   1.103076  -1.900992
    B  -1.460993   1.483750  -0.857689
    B  -1.003486   1.584755   0.903551
    B   1.003486   1.584755   0.903551
    B   1.470047  -0.008459  -1.689860
    B   2.103177   0.018263   0.019865
    B   1.361360  -0.031287   1.735717
    B  -1.361360  -0.031287   1.735717
    B  -1.470047  -0.008459  -1.689860
    B  -2.103177   0.018263   0.019865
    B   1.407657  -1.512051  -0.878405
    B   0.000000  -1.038749  -1.893610
    B  -1.407657  -1.512051  -0.878405
    B  -1.455859  -1.486873   0.852052
    B   1.455859  -1.486873   0.852052
    B   0.000000  -1.357206   1.841101
    B   0.000000  -2.199098   0.057876
    H   0.000000   3.162523  -0.519360
    H   0.000000   1.321557   2.964370
    H  -1.597390   2.483947   1.381656
    H  -2.232634   2.327380  -1.147456
    H   0.000000   1.740964  -2.894298
    H   2.232634   2.327380  -1.147456
    H   1.597390   2.483947   1.381656
    H   3.277122   0.118744   0.117519
    H   2.158929   0.103743   2.597423
    H  -2.158929   0.103743   2.597423
    H   2.234375  -0.005047  -2.593104
    H  -2.234375  -0.005047  -2.593104
    H  -3.277122   0.118744   0.117519
    H  -2.113001  -2.332702  -1.354247
    H   0.000000  -1.515662  -2.977231
    H  -2.272419  -2.221824   1.292820
    H   0.000000  -1.789370   2.940157
    H   2.272419  -2.221824   1.292820
    H   2.113001  -2.332702  -1.354247
    H   0.000000  -3.382141   0.045442
    C   0.000000   0.824844   2.003703
    C   0.000000   2.084583  -0.426571
