40
B18C2H20
    B   0.000000   2.133874   0.000373
    B   1.452797   1.455467  -0.858931
    B  -1.452797   1.455467  -0.858931
    B  -1.473268   1.341787   0.869535
    B   1.473268   1.341787   0.869535
    B   1.236757   0.000322  -1.822324
    B   2.185008   0.007430  -0.187073
    B   0.934484  -0.002175   2.004619
    B  -0.934484  -0.002175   2.004619
    B  -1.236757   0.000322  -1.822324
    B  -2.185008   0.007430  -0.187073
    B   1.477524  -1.457243  -0.862894
    B   0.000000  -1.364681  -1.745863
    B  -1.477524  -1.457243  -0.862894
    B  -1.503163  -1.339260   0.870231
    B   1.503163  -1.339260   0.870231
    B   0.000000  -1.457089   1.726174
    B   0.000000  -2.157551   0.004537
    H   0.000000   3.311499   0.006305
    H   0.000000   2.097440   2.470565
    H  -2.274362   2.058600   1.356684
    H  -2.189217   2.257395  -1.315695
    H   0.000000   1.929106  -2.538959
    H   2.189217   2.257395  -1.315695
    H   2.274362   2.058600   1.356684
    H   3.364961   0.043062  -0.158350
    H   1.543841   0.047762   3.013704
    H  -1.543841   0.047762   3.013704
    H   1.787745   0.047470  -2.865118
    H  -1.787745   0.047470  -2.865118
    H  -3.364961   0.043062  -0.158350
    H  -2.257741  -2.219748  -1.319422
    H   0.000000  -2.051828  -2.708890
    H  -2.346037  -2.012180   1.355405
    H   0.000000  -2.228613   2.622230
    H   2.346037  -2.012180   1.355405
    H   2.257741  -2.219748  -1.319422
    H   0.000000  -3.339359   0.010972
    C   0.000000   1.383171   1.675159
    C   0.000000   1.286659  -1.683079
