40
B18C2H20
    B   1.459146   1.452072  -0.825002
    B   0.000000   1.093272  -1.868374
    B  -1.459146   1.452072  -0.825002
    B  -0.967466   1.643662   0.955929
    B   0.967466   1.643662   0.955929
    B   1.455356  -0.013629  -1.700160
    B   2.173874  -0.058053  -0.034596
    B   1.461990   0.002231   1.669374
    B  -1.461990   0.002231   1.669374
    B  -1.455356  -0.013629  -1.700160
    B  -2.173874  -0.058053  -0.034596
    B   1.447560  -1.533470  -0.890565
    B   0.000000  -1.108583  -1.855822
    B  -1.447560  -1.533470  -0.890565
    B  -1.462282  -1.483888   0.829309
    B   1.462282  -1.483888   0.829309
    B   0.000000  -1.088344   1.865330
    B   0.000000  -2.161302  -0.035261
    H   0.000000   3.157201  -0.484028
    H   0.000000   1.137135   2.983018
    H  -1.528131   2.537839   1.476479
    H  -2.226921   2.296798  -1.123086
    H   0.000000   1.759614  -2.842764
    H   2.226921   2.296798  -1.123086
    H   1.528131   2.537839   1.476479
    H   3.345124   0.079306   0.042090
    H   2.227430   0.159619   2.553144
    H  -2.227430   0.159619   2.553144
    H   2.195371   0.030592  -2.621915
    H  -2.195371   0.030592  -2.621915
    H  -3.345124   0.079306   0.042090
    H  -2.138401  -2.360813  -1.375237
    H   0.000000  -1.626633  -2.919523
    H  -2.204833  -2.260327   1.324095
    H   0.000000  -1.605681   2.926572
    H   2.204833  -2.260327   1.324095
    H   2.138401  -2.360813  -1.375237
    H   0.000000  -3.341941   0.041783
    C   0.000000   0.717948   1.986268
    C   0.000000   2.083439  -0.356648
