40
B18C2H20
    B   0.000000   2.148768   0.016591
    B   1.481656   1.462544  -0.863001
    B  -1.481656   1.462544  -0.863001
    B  -1.498393   1.346209   0.867891
    B   1.498393   1.346209   0.867891
    B   1.084971  -0.009490  -1.839658
    B   2.159942   0.001944  -0.176337
    B   0.948452  -0.019970   1.988139
    B  -0.948452  -0.019970   1.988139
    B  -1.084971  -0.009490  -1.839658
    B  -2.159942   0.001944  -0.176337
    B   1.478496  -1.463032  -0.863374
    B   0.000000  -1.498095  -1.717422
    B  -1.478496  -1.463032  -0.863374
    B  -1.507620  -1.347049   0.869158
    B   1.507620  -1.347049   0.869158
    B   0.000000  -1.480094   1.719704
    B   0.000000  -2.195715   0.011212
    H   0.000000   3.325300   0.041263
    H   0.000000   2.048489   2.398882
    H  -2.267078   2.066918   1.396829
    H  -2.212282   2.241937  -1.361426
    H   0.000000   2.003461  -2.427160
    H   2.212282   2.241937  -1.361426
    H   2.267078   2.066918   1.396829
    H   3.341094   0.048577  -0.174275
    H   1.525680   0.100436   3.008887
    H  -1.525680   0.100436   3.008887
    H   1.585124   0.093082  -2.903389
    H  -1.585124   0.093082  -2.903389
    H  -3.341094   0.048577  -0.174275
    H  -2.316737  -2.148501  -1.339367
    H   0.000000  -2.185405  -2.678066
    H  -2.375889  -1.981768   1.361492
    H   0.000000  -2.236581   2.628242
    H   2.375889  -1.981768   1.361492
    H   2.316737  -2.148501  -1.339367
    H   0.000000  -3.377156   0.042834
    C   0.000000   1.324667   1.594620
    C   0.000000   1.338690  -1.573568
