40
B18C2H20
    B  -0.036549   2.177169  -0.020932
    B   1.469403   1.474665  -0.855916
    B  -0.008767   1.322879  -1.757494
    B  -1.499957   1.444312  -0.865953
    B  -1.525376   1.326745   0.870460
    B  -0.006548   1.474324   1.700995
    B   1.260297   0.000000  -1.762099
    B   2.102303   0.000000   0.030031
    B   1.077578   0.000000   1.804733
    B  -0.898735   0.000000   1.969284
    B  -1.269585   0.000000  -1.838008
    B  -2.226089   0.000000  -0.176792
    B   1.469403  -1.474665  -0.855916
    B  -0.008767  -1.322879  -1.757494
    B  -1.499957  -1.444312  -0.865953
    B  -1.525376  -1.326745   0.870460
    B  -0.006548  -1.474324   1.700995
    B  -0.036549  -2.177169  -0.020932
    H   0.050241   3.352575   0.028322
    H   0.103217   2.189878   2.632240
    H  -2.331482   2.012872   1.397918
    H  -2.233883   2.269661  -1.290386
    H   0.044699   2.007982  -2.720084
    H   2.329433   2.191898  -1.226356
    H   2.097640   2.040265   1.211352
    H   3.269699   0.000000   0.183692
    H   1.793701   0.000000   2.739377
    H  -1.408371   0.000000   3.035640
    H   1.930018   0.000000  -2.735866
    H  -1.825919   0.000000  -2.880988
    H  -3.407432   0.000000  -0.135223
    H  -2.233883  -2.269661  -1.290386
    H   0.044699  -2.007982  -2.720084
    H  -2.331482  -2.012872   1.397918
    H   0.103217  -2.189878   2.632240
    H   2.097640  -2.040265   1.211352
    H   2.329433  -2.191898  -1.226356
    H   0.050241  -3.352575   0.028322
    C   1.349195  -1.390721   0.779079
    C   1.349195   1.390721   0.779079
