40
B18C2H20
    B   0.000000   2.147081   0.016623
    B   1.482098   1.462784  -0.862918
    B  -1.482098   1.462784  -0.862918
    B  -1.497261   1.344324   0.867807
    B   1.497261   1.344324   0.867807
    B   1.089270  -0.008887  -1.839307
    B   2.161085   0.002127  -0.183105
    B   0.943552  -0.020279   1.993356
    B  -0.943552  -0.020279   1.993356
    B  -1.089270  -0.008887  -1.839307
    B  -2.161085   0.002127  -0.183105
    B   1.478403  -1.463069  -0.863349
    B   0.000000  -1.497769  -1.717765
    B  -1.478403  -1.463069  -0.863349
    B  -1.506872  -1.344259   0.868952
    B   1.506872  -1.344259   0.868952
    B   0.000000  -1.479025   1.719787
    B   0.000000  -2.194877   0.012617
    H   0.000000   3.323575   0.042800
    H   0.000000   2.049359   2.397866
    H  -2.265794   2.064967   1.397077
    H  -2.210804   2.244921  -1.359902
    H   0.000000   2.001625  -2.427583
    H   2.210804   2.244921  -1.359902
    H   2.265794   2.064967   1.397077
    H   3.342187   0.049127  -0.180679
    H   1.521330   0.100260   3.013748
    H  -1.521330   0.100260   3.013748
    H   1.588486   0.092720  -2.903561
    H  -1.588486   0.092720  -2.903561
    H  -3.342187   0.049127  -0.180679
    H  -2.315663  -2.150651  -1.338094
    H   0.000000  -2.184735  -2.678634
    H  -2.374770  -1.979707   1.361093
    H   0.000000  -2.237580   2.626674
    H   2.374770  -1.979707   1.361093
    H   2.315663  -2.150651  -1.338094
    H   0.000000  -3.376263   0.044886
    C   0.000000   1.323567   1.595273
    C   0.000000   1.336286  -1.574509
