40
B18C2H20
    B  -0.107318   2.217174  -0.001093
    B  -0.009352   1.440587  -1.699951
    B  -1.518582   1.459357  -0.866384
    B  -1.530041   1.378838   0.871769
    B  -0.004340   1.468609   1.694100
    B   1.125565  -0.016238  -1.789280
    B   2.127061  -0.035728  -0.019960
    B   1.054517  -0.012525   1.835924
    B  -0.967026   0.006246   1.929858
    B  -1.128625   0.004572  -1.835015
    B  -2.181040   0.005799  -0.125147
    B   1.488668  -1.502901  -0.851443
    B  -0.001502  -1.419661  -1.717681
    B  -1.488022  -1.456871  -0.854209
    B  -1.509456  -1.375304   0.869368
    B   1.484615  -1.509576   0.857530
    B   0.001842  -1.454298   1.711788
    B  -0.005096  -2.222698  -0.002869
    H   0.112241   3.374095   0.002130
    H   0.123055   2.224590   2.590277
    H  -2.328043   2.088446   1.379496
    H  -2.284446   2.224655  -1.341865
    H   0.133214   2.155153  -2.626792
    H   2.124754   2.000727  -1.153487
    H   2.129283   1.987055   1.146224
    H   3.291145   0.142142   0.000283
    H   1.742349   0.106860   2.786940
    H  -1.506046   0.038855   2.981410
    H   1.776266   0.107139  -2.765313
    H  -1.647939   0.031082  -2.896741
    H  -3.363476   0.008211  -0.121320
    H  -2.283319  -2.192639  -1.328146
    H   0.049245  -2.060527  -2.710471
    H  -2.336795  -2.053546   1.373197
    H   0.032881  -2.128069   2.683752
    H   2.356621  -2.142701   1.343032
    H   2.354167  -2.142999  -1.340815
    H  -0.022418  -3.404484  -0.001581
    C   1.359795   1.331974  -0.787726
    C   1.355599   1.328599   0.780481
