40
B18C2H20
    B   1.457870   1.457828  -0.836790
    B   0.000000   1.084525  -1.885829
    B  -1.457870   1.457828  -0.836790
    B  -0.977303   1.620287   0.940917
    B   0.977303   1.620287   0.940917
    B   1.462432  -0.011902  -1.699815
    B   2.162767  -0.039389  -0.021791
    B   1.460642  -0.006750   1.684037
    B  -1.460642  -0.006750   1.684037
    B  -1.462432  -0.011902  -1.699815
    B  -2.162767  -0.039389  -0.021791
    B   1.418449  -1.532036  -0.890201
    B   0.000000  -1.055978  -1.894666
    B  -1.418449  -1.532036  -0.890201
    B  -1.473089  -1.483159   0.829318
    B   1.473089  -1.483159   0.829318
    B   0.000000  -1.110078   1.856618
    B   0.000000  -2.163558   0.032044
    H   0.000000   3.156471  -0.478766
    H   0.000000   1.140851   2.976494
    H  -1.531789   2.516859   1.464947
    H  -2.227232   2.302873  -1.129541
    H   0.000000   1.751420  -2.859822
    H   2.227232   2.302873  -1.129541
    H   1.531789   2.516859   1.464947
    H   3.335061   0.092707   0.049522
    H   2.224519   0.161010   2.567048
    H  -2.224519   0.161010   2.567048
    H   2.222167   0.022272  -2.605911
    H  -2.222167   0.022272  -2.605911
    H  -3.335061   0.092707   0.049522
    H  -2.100388  -2.364597  -1.378807
    H   0.000000  -1.581582  -2.954387
    H  -2.228322  -2.256774   1.308795
    H   0.000000  -1.630655   2.916683
    H   2.228322  -2.256774   1.308795
    H   2.100388  -2.364597  -1.378807
    H   0.000000  -3.344016   0.111396
    C   0.000000   0.713158   1.983311
    C   0.000000   2.080985  -0.366260
