40
B18C2H20
    B   0.000000   2.140027  -0.022523
    B   1.490413   1.454934  -0.874600
    B   0.000000   1.325651  -1.772903
    B  -1.490413   1.454934  -0.874600
    B  -1.492269   1.346469   0.850895
    B   1.492269   1.346469   0.850895
    B   1.275231   0.000000  -1.833836
    B   2.201926   0.000000  -0.182927
    B   0.929306   0.000000   1.988686
    B  -0.929306   0.000000   1.988686
    B  -1.275231   0.000000  -1.833836
    B  -2.201926   0.000000  -0.182927
    B   1.490413  -1.454934  -0.874600
    B   0.000000  -1.325651  -1.772903
    B  -1.490413  -1.454934  -0.874600
    B  -1.492269  -1.346469   0.850895
    B   1.492269  -1.346469   0.850895
    B   0.000000  -2.140027  -0.022523
    H   0.000000   3.311231   0.119885
    H   0.000000   2.050556   2.412972
    H  -2.266045   2.019343   1.434852
    H  -2.269842   2.250052  -1.273007
    H   0.000000   2.048340  -2.709403
    H   2.269842   2.250052  -1.273007
    H   2.266045   2.019343   1.434852
    H   3.376496   0.000000  -0.048521
    H   1.469283   0.000000   3.033201
    H  -1.469283   0.000000   3.033201
    H   1.865530   0.000000  -2.858388
    H  -1.865530   0.000000  -2.858388
    H  -3.376496   0.000000  -0.048521
    H  -2.269842  -2.250052  -1.273007
    H   0.000000  -2.048340  -2.709403
    H  -2.266045  -2.019343   1.434852
    H   0.000000  -2.050556   2.412972
    H   2.266045  -2.019343   1.434852
    H   2.269842  -2.250052  -1.273007
    H   0.000000  -3.311231   0.119885
    C   0.000000   1.338945   1.597612
    C   0.000000  -1.338945   1.597612
