40
B18C2H20
    B   0.046639   2.164546  -0.026960
    B   1.523986   1.480516  -0.879636
    B   0.012871   1.342285  -1.746398
    B  -1.464589   1.454478  -0.847354
    B   1.517847   1.346632   0.861578
    B   0.001634   1.454663   1.692182
    B   1.270471   0.026491  -1.815367
    B   2.206857   0.026641  -0.188025
    B   0.918446  -0.001518   1.984033
    B  -1.003997  -0.012047   1.923547
    B  -1.263286  -0.001668  -1.786599
    B  -2.168936  -0.012050  -0.091878
    B  -0.009160  -1.329363  -1.720255
    B  -1.497736  -1.469805  -0.841176
    B  -1.522213  -1.453437   0.878859
    B   1.484447  -1.333284   0.867340
    B  -0.020148  -1.469763   1.717437
    B  -0.006805  -2.164538   0.003467
    H  -0.064833   3.336244   0.036131
    H  -0.096201   2.232083   2.574561
    H  -2.109218   1.926882   1.217987
    H  -2.276242   2.233296  -1.204098
    H  -0.016410   1.998761  -2.729466
    H   2.285862   2.269383  -1.320384
    H   2.353623   2.004185   1.378535
    H   3.378493  -0.104185  -0.181307
    H   1.527301   0.001899   2.996599
    H  -1.683903   0.092570   2.882076
    H   1.851865  -0.104286  -2.832647
    H  -1.836313   0.001840  -2.819838
    H  -3.338895   0.092664   0.018689
    H  -2.293762  -2.200105  -1.322287
    H   0.081415  -2.029910  -2.665030
    H  -2.338325  -2.165448   1.350585
    H  -0.001662  -2.198783   2.648389
    H   2.346904  -2.035149   1.261138
    H   2.066100  -2.032028  -1.193238
    H   0.130973  -3.333168  -0.077076
    C  -1.360294   1.273666   0.785347
    C   1.367196  -1.309189  -0.789193
