40
B18C2H20
    B  -0.106932   2.191101  -0.009941
    B  -0.017501   1.362255  -1.723615
    B  -1.528436   1.454718  -0.869120
    B  -1.532940   1.338192   0.872185
    B  -0.005956   1.471481   1.703526
    B   1.251519  -0.019002  -1.775046
    B   2.171599  -0.042553  -0.062897
    B   1.021787  -0.011114   1.886307
    B  -0.920150   0.007131   1.981519
    B  -1.245602   0.002115  -1.827178
    B  -2.218802   0.002162  -0.178094
    B   1.493417  -1.492103  -0.845382
    B   0.001095  -1.335825  -1.736273
    B  -1.487061  -1.451638  -0.855374
    B  -1.513532  -1.331046   0.874266
    B   1.482931  -1.506035   0.862899
    B   0.005362  -1.453494   1.712420
    B  -0.007802  -2.186802  -0.009666
    H   0.119158   3.346395  -0.013621
    H   0.125086   2.255245   2.575136
    H  -2.329957   2.049996   1.380072
    H  -2.261403   2.263750  -1.325610
    H   0.132680   2.068141  -2.656173
    H   2.087155   2.039174  -1.142903
    H   2.124537   1.966966   1.148304
    H   3.331737   0.150299  -0.010358
    H   1.738978   0.107663   2.815691
    H  -1.479261   0.029199   3.022617
    H   1.892812   0.120540  -2.754071
    H  -1.761869   0.023817  -2.890701
    H  -3.400826  -0.001285  -0.152596
    H  -2.251699  -2.230740  -1.310724
    H   0.047445  -1.975185  -2.730908
    H  -2.339482  -2.009831   1.380300
    H   0.022631  -2.150138   2.669241
    H   2.351884  -2.138923   1.354601
    H   2.328246  -2.175085  -1.332608
    H  -0.034673  -3.368433  -0.022604
    C   1.355487   1.329092  -0.784188
    C   1.358337   1.299802   0.780833
