40
B18C2H20
    B  -0.061434   2.146075  -0.011624
    B  -0.012988   1.342381  -1.716336
    B  -1.529032   1.452670  -0.868032
    B  -1.533445   1.341606   0.869042
    B  -0.002622   1.457972   1.687629
    B   1.258979  -0.012759  -1.777641
    B   2.164098  -0.021566  -0.129881
    B   0.972275  -0.012470   1.945627
    B  -0.928806   0.004672   1.993840
    B  -1.263153   0.004235  -1.825031
    B  -2.226345   0.003934  -0.178710
    B   1.487744  -1.486094  -0.842447
    B  -0.000718  -1.337938  -1.737074
    B  -1.495221  -1.451226  -0.860553
    B  -1.512725  -1.338345   0.873367
    B   1.495803  -1.439120   0.870429
    B   0.003511  -1.465157   1.712159
    B  -0.009425  -2.178556  -0.007519
    H   0.115430   3.310014  -0.014445
    H   0.128692   2.267846   2.535160
    H  -2.312142   2.075629   1.371095
    H  -2.248992   2.272013  -1.323302
    H   0.116465   2.074344  -2.632105
    H   2.077696   2.057169  -1.123694
    H   2.135638   1.914683   1.151199
    H   3.327893   0.150819  -0.079096
    H   1.693527   0.103731   2.871332
    H  -1.486665   0.050446   3.034148
    H   1.906907   0.119344  -2.752924
    H  -1.758214   0.036639  -2.897690
    H  -3.407551   0.013167  -0.141273
    H  -2.256167  -2.229794  -1.321936
    H   0.049455  -1.975512  -2.731808
    H  -2.337072  -2.022399   1.374603
    H   0.048095  -2.186984   2.648344
    H   2.370712  -2.069701   1.353810
    H   2.318843  -2.193128  -1.297630
    H  -0.008047  -3.359732  -0.020202
    C   1.352513   1.331518  -0.791649
    C   1.366489   1.249577   0.791084
