40
B18C2H20
    B   1.458845   1.454358  -0.828206
    B   0.000000   1.096970  -1.870821
    B  -1.458845   1.454358  -0.828206
    B  -0.969866   1.640034   0.952980
    B   0.969866   1.640034   0.952980
    B   1.453227  -0.013430  -1.700800
    B   2.170303  -0.052859  -0.031856
    B   1.459818   0.000116   1.671320
    B  -1.459818   0.000116   1.671320
    B  -1.453227  -0.013430  -1.700800
    B  -2.170303  -0.052859  -0.031856
    B   1.447401  -1.532772  -0.890267
    B   0.000000  -1.112451  -1.856467
    B  -1.447401  -1.532772  -0.890267
    B  -1.461181  -1.484157   0.829279
    B   1.461181  -1.484157   0.829279
    B   0.000000  -1.089933   1.866207
    B   0.000000  -2.162661  -0.035740
    H   0.000000   3.158010  -0.478979
    H   0.000000   1.136700   2.982624
    H  -1.531021   2.533665   1.474061
    H  -2.227464   2.298360  -1.125781
    H   0.000000   1.763600  -2.845073
    H   2.227464   2.298360  -1.125781
    H   1.531021   2.533665   1.474061
    H   3.341632   0.083030   0.044639
    H   2.225358   0.158590   2.554823
    H  -2.225358   0.158590   2.554823
    H   2.195771   0.029283  -2.620642
    H  -2.195771   0.029283  -2.620642
    H  -3.341632   0.083030   0.044639
    H  -2.142331  -2.357763  -1.373131
    H   0.000000  -1.633706  -2.918754
    H  -2.205226  -2.260058   1.322681
    H   0.000000  -1.605965   2.928078
    H   2.205226  -2.260058   1.322681
    H   2.142331  -2.357763  -1.373131
    H   0.000000  -3.343259   0.041563
    C   0.000000   0.716291   1.986453
    C   0.000000   2.083613  -0.357021
