40
B18C2H20
    B   0.039456   2.159120  -0.022944
    B   1.502154   1.473368  -0.867331
    B   0.005746   1.332540  -1.750375
    B  -1.481636   1.461225  -0.860178
    B   1.518238   1.336020   0.869332
    B   0.004898   1.461053   1.713396
    B   1.267926   0.024658  -1.817306
    B   2.207072   0.025012  -0.185990
    B   0.917123   0.000384   1.978614
    B  -1.041779  -0.011435   1.870166
    B  -1.257934   0.000345  -1.782998
    B  -2.141390  -0.011357  -0.033595
    B  -0.012023  -1.328740  -1.733075
    B  -1.497853  -1.464701  -0.842934
    B  -1.492414  -1.490857   0.861203
    B   1.494597  -1.331928   0.877193
    B  -0.018846  -1.464654   1.718413
    B  -0.013898  -2.177209   0.007870
    H  -0.055131   3.333789   0.030843
    H  -0.080502   2.226956   2.605671
    H  -2.090162   1.994386   1.207344
    H  -2.295904   2.228646  -1.231789
    H  -0.011460   1.992630  -2.731210
    H   2.258860   2.269125  -1.305358
    H   2.358384   1.996987   1.374717
    H   3.378586  -0.103511  -0.199019
    H   1.510317  -0.001650   3.000505
    H  -1.726215   0.083194   2.826461
    H   1.865491  -0.103944  -2.824928
    H  -1.846564  -0.001629  -2.807499
    H  -3.311566   0.083458   0.082469
    H  -2.302062  -2.177850  -1.335308
    H   0.081387  -2.025713  -2.679563
    H  -2.306019  -2.206455   1.331320
    H   0.004435  -2.176458   2.662050
    H   2.360444  -2.029780   1.269236
    H   2.060870  -2.044298  -1.189959
    H   0.131933  -3.344180  -0.076958
    C  -1.347762   1.336154   0.778239
    C   1.363205  -1.322706  -0.786455
