40
B18C2H20
    B   0.000000   2.151553  -0.035907
    B   1.491739   1.454028  -0.871455
    B   0.000000   1.298469  -1.767870
    B  -1.491739   1.454028  -0.871455
    B  -1.487096   1.384489   0.846034
    B   1.487096   1.384489   0.846034
    B   1.301142   0.000000  -1.814071
    B   2.188279   0.000000  -0.137492
    B   0.939717   0.000000   1.954495
    B  -0.939717   0.000000   1.954495
    B  -1.301142   0.000000  -1.814071
    B  -2.188279   0.000000  -0.137492
    B   1.491739  -1.454028  -0.871455
    B   0.000000  -1.298469  -1.767870
    B  -1.491739  -1.454028  -0.871455
    B  -1.487096  -1.384489   0.846034
    B   1.487096  -1.384489   0.846034
    B   0.000000  -2.151553  -0.035907
    H   0.000000   3.324295   0.092928
    H   0.000000   2.041285   2.423402
    H  -2.252294   2.061243   1.436218
    H  -2.270167   2.241861  -1.285682
    H   0.000000   2.001718  -2.719304
    H   2.270167   2.241861  -1.285682
    H   2.252294   2.061243   1.436218
    H   3.363300   0.000000  -0.006185
    H   1.480018   0.000000   2.999133
    H  -1.480018   0.000000   2.999133
    H   1.900836   0.000000  -2.832988
    H  -1.900836   0.000000  -2.832988
    H  -3.363300   0.000000  -0.006185
    H  -2.270167  -2.241861  -1.285682
    H   0.000000  -2.001718  -2.719304
    H  -2.252294  -2.061243   1.436218
    H   0.000000  -2.041285   2.423402
    H   2.252294  -2.061243   1.436218
    H   2.270167  -2.241861  -1.285682
    H   0.000000  -3.324295   0.092928
    C   0.000000   1.347354   1.593763
    C   0.000000  -1.347354   1.593763
