40
B18C2H20
    B  -0.027596   2.120693  -0.016357
    B  -0.008587   1.327494  -1.746194
    B  -1.502195   1.463883  -0.867263
    B  -1.514923   1.330417   0.865064
    B   1.479793   1.325236   0.854479
    B   1.271258  -0.019284  -1.813158
    B   2.200854  -0.023524  -0.190946
    B   0.934259  -0.023459   2.001630
    B  -0.936516  -0.019474   2.005112
    B  -1.269706   0.003117  -1.823444
    B  -2.213542   0.003471  -0.184498
    B   1.494921  -1.473596  -0.864440
    B  -0.001899  -1.337940  -1.741800
    B  -1.493703  -1.446385  -0.862103
    B  -1.508000  -1.341344   0.868600
    B   1.504177  -1.346888   0.868457
    B  -0.001076  -1.473810   1.727401
    B   0.002020  -2.153457   0.001263
    H   0.091036   3.290015   0.051657
    H   0.010229   2.057033   2.387064
    H  -2.249736   2.071170   1.415637
    H  -2.246923   2.274628  -1.297408
    H   0.100960   2.067358  -2.658480
    H   2.071406   2.057429  -1.184426
    H   2.268624   2.069888   1.310061
    H   3.370756   0.120453  -0.160854
    H   1.545391   0.120066   2.999756
    H  -1.502090   0.108826   3.031653
    H   1.878829   0.109271  -2.815396
    H  -1.803468   0.028855  -2.878090
    H  -3.393720   0.029344  -0.118259
    H  -2.263657  -2.226191  -1.307103
    H   0.015059  -1.990525  -2.728435
    H  -2.353549  -1.994622   1.376421
    H   0.011094  -2.234847   2.632182
    H   2.381654  -1.958193   1.375118
    H   2.283743  -2.235452  -1.306385
    H   0.005392  -3.335140   0.002690
    C  -0.003822   1.327853   1.588520
    C   1.373254   1.327631  -0.797457
