40
B18C2H20
    B  -0.108138   2.229771  -0.001743
    B  -0.008096   1.452191  -1.696502
    B  -1.520825   1.444522  -0.865428
    B  -1.519154   1.439404   0.866423
    B  -0.005815   1.461493   1.694588
    B   1.097807  -0.015137  -1.802720
    B   2.126760  -0.035754  -0.004682
    B   1.077658  -0.013415   1.810920
    B  -1.050536   0.006481   1.856777
    B  -1.078610   0.005273  -1.846998
    B  -2.155588   0.006096  -0.012166
    B   1.485368  -1.507684  -0.852889
    B   0.000116  -1.430498  -1.717460
    B  -1.490782  -1.444026  -0.856883
    B  -1.492712  -1.437783   0.857694
    B   1.485531  -1.507009   0.855879
    B  -0.000006  -1.439484   1.716529
    B  -0.004055  -2.230498  -0.000518
    H   0.120887   3.384840  -0.004326
    H   0.131152   2.187524   2.613483
    H  -2.306221   2.166069   1.366434
    H  -2.303770   2.177846  -1.362416
    H   0.130304   2.172326  -2.619684
    H   2.127167   1.994297  -1.152838
    H   2.132266   1.987424   1.152060
    H   3.291560   0.138060  -0.000966
    H   1.744183   0.108025   2.776642
    H  -1.593208   0.034676   2.906813
    H   1.759127   0.106213  -2.771923
    H  -1.618062   0.032668  -2.898644
    H  -3.338224   0.007243  -0.008087
    H  -2.301877  -2.149878  -1.348710
    H   0.042328  -2.073675  -2.709159
    H  -2.307148  -2.137118   1.353054
    H   0.038604  -2.084583   2.707221
    H   2.356235  -2.138609   1.346110
    H   2.351765  -2.145433  -1.343175
    H  -0.014145  -3.412536  -0.001433
    C   1.359009   1.330824  -0.784165
    C   1.359146   1.329853   0.783159
