40
B18C2H20
    B   1.481062   1.441199  -0.855449
    B   0.000000   1.330533  -1.745247
    B  -1.481062   1.441199  -0.855449
    B  -1.508909   1.335049   0.871450
    B   1.508909   1.335049   0.871450
    B   0.000000   1.440852   1.711599
    B   1.257607   0.000000  -1.820723
    B   2.202675   0.000000  -0.175318
    B   0.950401   0.000000   1.997219
    B  -0.950401   0.000000   1.997219
    B  -1.257607   0.000000  -1.820723
    B  -2.202675   0.000000  -0.175318
    B   1.481062  -1.441199  -0.855449
    B   0.000000  -1.330533  -1.745247
    B  -1.481062  -1.441199  -0.855449
    B  -1.508909  -1.335049   0.871450
    B   1.508909  -1.335049   0.871450
    B   0.000000  -1.440852   1.711599
    H   0.000000   3.112462   0.000017
    H   0.000000   2.258523   2.563615
    H  -2.303645   2.079051   1.329970
    H  -2.218179   2.259612  -1.281252
    H   0.000000   2.074283  -2.663130
    H   2.218179   2.259612  -1.281252
    H   2.303645   2.079051   1.329970
    H   3.383996   0.000000  -0.138021
    H   1.573438   0.000000   3.001507
    H  -1.573438   0.000000   3.001507
    H   1.818105   0.000000  -2.861213
    H  -1.818105   0.000000  -2.861213
    H  -3.383996   0.000000  -0.138021
    H  -2.218179  -2.259612  -1.281252
    H   0.000000  -2.074283  -2.663130
    H  -2.303645  -2.079051   1.329970
    H   0.000000  -2.258523   2.563615
    H   2.303645  -2.079051   1.329970
    H   2.218179  -2.259612  -1.281252
    H   0.000000  -3.112462   0.000017
    C   0.000000   2.040424   0.000391
    C   0.000000  -2.040424   0.000391
