40
B18C2H20
    B  -0.047065   2.145774  -0.028332
    B   1.457407   1.448642  -0.844687
    B  -0.017552   1.418492  -1.705239
    B  -1.533982   1.456622  -0.884842
    B  -1.484917   1.420478   0.837333
    B   1.631790   0.980494   0.942755
    B  -0.002276   1.448549   1.683676
    B   1.139883   0.000000  -1.875571
    B  -1.054965   0.000000   1.922220
    B  -1.211302   0.000000  -1.835036
    B  -2.192177   0.000000  -0.126227
    B   1.457407  -1.448642  -0.844687
    B  -0.017552  -1.418492  -1.705239
    B  -1.533982  -1.456622  -0.884842
    B  -1.484917  -1.420478   0.837333
    B   1.631790  -0.980494   0.942755
    B  -0.002276  -1.448549   1.683676
    B  -0.047065  -2.145774  -0.028332
    H   0.099012   3.315240   0.055492
    H   0.150491   2.225844   2.557799
    H  -2.260642   2.163674   1.333813
    H  -2.330989   2.198203  -1.345699
    H   0.023747   2.160377  -2.626481
    H   2.290425   2.226973  -1.147632
    H   2.523006   1.550761   1.458270
    H   3.175704   0.000000  -0.464942
    H   1.182863   0.000000   2.982444
    H  -1.570571   0.000000   2.983961
    H   1.803381   0.000000  -2.851790
    H  -1.732785   0.000000  -2.896519
    H  -3.372183   0.000000  -0.047686
    H  -2.330989  -2.198203  -1.345699
    H   0.023747  -2.160377  -2.626481
    H  -2.260642  -2.163674   1.333813
    H   0.150491  -2.225844   2.557799
    H   2.523006  -1.550761   1.458270
    H   2.290425  -2.226973  -1.147632
    H   0.099012  -3.315240   0.055492
    C   0.736015   0.000000   1.997582
    C   2.099227   0.000000  -0.360619
