40
B18C2H20
    B  -0.047076   2.161252  -0.026904
    B   1.453395   1.456297  -0.836972
    B  -0.017984   1.450097  -1.702310
    B  -1.533899   1.448359  -0.885742
    B  -1.483623   1.449197   0.835459
    B   1.635818   0.974738   0.944680
    B   0.001593   1.456536   1.677173
    B   1.095051   0.000000  -1.874822
    B  -1.075101   0.000000   1.886559
    B  -1.129601   0.000000  -1.853335
    B  -2.171513   0.000000  -0.053735
    B   1.453395  -1.456297  -0.836972
    B  -0.017984  -1.450097  -1.702310
    B  -1.533899  -1.448359  -0.885742
    B  -1.483623  -1.449197   0.835459
    B   1.635818  -0.974738   0.944680
    B   0.001593  -1.456536   1.677173
    B  -0.047076  -2.161252  -0.026904
    H   0.085546   3.333128   0.049704
    H   0.161339   2.225112   2.557762
    H  -2.258363   2.193827   1.330037
    H  -2.354398   2.154746  -1.359527
    H   0.022732   2.195004  -2.620309
    H   2.295573   2.225071  -1.139318
    H   2.531348   1.537217   1.461147
    H   3.160297   0.000000  -0.486298
    H   1.159800   0.000000   2.979971
    H  -1.590696   0.000000   2.948686
    H   1.757736   0.000000  -2.851869
    H  -1.651273   0.000000  -2.915081
    H  -3.351753   0.000000   0.026363
    H  -2.354398  -2.154746  -1.359527
    H   0.022732  -2.195004  -2.620309
    H  -2.258363  -2.193827   1.330037
    H   0.161339  -2.225112   2.557762
    H   2.531348  -1.537217   1.461147
    H   2.295573  -2.225071  -1.139318
    H   0.085546  -3.333128   0.049704
    C   0.727110   0.000000   1.989098
    C   2.085938   0.000000  -0.365027
