40
B18C2H20
    B   0.000000   2.089602   0.030930
    B   1.501912   1.433988  -0.874808
    B   0.000000   1.350176  -1.726748
    B  -1.501912   1.433988  -0.874808
    B  -1.546851   1.232825   0.864069
    B   1.546851   1.232825   0.864069
    B   0.000000   1.407906   1.718571
    B   1.264330   0.000000  -1.871492
    B   2.301638   0.000000  -0.339928
    B  -1.264330   0.000000  -1.871492
    B  -2.301638   0.000000  -0.339928
    B   1.501912  -1.433988  -0.874808
    B   0.000000  -1.350176  -1.726748
    B  -1.501912  -1.433988  -0.874808
    B  -1.546851  -1.232825   0.864069
    B   1.546851  -1.232825   0.864069
    B   0.000000  -1.407906   1.718571
    B   0.000000  -2.089602   0.030930
    H   0.000000   3.269213   0.095083
    H   0.000000   2.099724   2.671837
    H  -2.318224   1.893273   1.468708
    H  -2.242362   2.290271  -1.221355
    H   0.000000   2.105989  -2.638216
    H   2.242362   2.290271  -1.221355
    H   2.318224   1.893273   1.468708
    H   3.478705   0.000000  -0.235606
    H   1.350020   0.000000   2.878293
    H  -1.350020   0.000000   2.878293
    H   1.782029   0.000000  -2.934406
    H  -1.782029   0.000000  -2.934406
    H  -3.478705   0.000000  -0.235606
    H  -2.242362  -2.290271  -1.221355
    H   0.000000  -2.105989  -2.638216
    H  -2.318224  -1.893273   1.468708
    H   0.000000  -2.099724   2.671837
    H   2.318224  -1.893273   1.468708
    H   2.242362  -2.290271  -1.221355
    H   0.000000  -3.269213   0.095083
    C  -0.933773   0.000000   1.878591
    C   0.933773   0.000000   1.878591
