40
B18C2H20
    B   0.000000   2.078722   0.024859
    B   1.504170   1.432828  -0.879283
    B   0.000000   1.381577  -1.716259
    B  -1.504170   1.432828  -0.879283
    B  -1.555511   1.163560   0.872936
    B   1.555511   1.163560   0.872936
    B   0.000000   1.441524   1.703224
    B   1.242835   0.000000  -1.882333
    B   2.307694   0.000000  -0.375362
    B  -1.242835   0.000000  -1.882333
    B  -2.307694   0.000000  -0.375362
    B   1.504170  -1.432828  -0.879283
    B   0.000000  -1.381577  -1.716259
    B  -1.504170  -1.432828  -0.879283
    B  -1.555511  -1.163560   0.872936
    B   1.555511  -1.163560   0.872936
    B   0.000000  -1.441524   1.703224
    B   0.000000  -2.078722   0.024859
    H   0.000000   3.256633   0.116041
    H   0.000000   2.154208   2.640160
    H  -2.359578   1.789998   1.470449
    H  -2.245917   2.293455  -1.211164
    H   0.000000   2.149609  -2.616911
    H   2.245917   2.293455  -1.211164
    H   2.359578   1.789998   1.470449
    H   3.486906   0.000000  -0.303801
    H   1.292780   0.000000   2.922597
    H  -1.292780   0.000000   2.922597
    H   1.744730   0.000000  -2.952617
    H  -1.744730   0.000000  -2.952617
    H  -3.486906   0.000000  -0.303801
    H  -2.245917  -2.293455  -1.211164
    H   0.000000  -2.149609  -2.616911
    H  -2.359578  -1.789998   1.470449
    H   0.000000  -2.154208   2.640160
    H   2.359578  -1.789998   1.470449
    H   2.245917  -2.293455  -1.211164
    H   0.000000  -3.256633   0.116041
    C  -0.854268   0.000000   1.934659
    C   0.854268   0.000000   1.934659
