40
B18C2H20
    B   0.007967   2.146768  -0.004510
    B   1.502480   1.454343  -0.867407
    B   0.009021   1.337941  -1.732980
    B  -1.470363   1.449051  -0.839116
    B   1.503706   1.342466   0.857899
    B  -0.008400   1.448858   1.693428
    B   1.272668   0.007189  -1.809413
    B   2.201828   0.007316  -0.193186
    B   0.930201  -0.000636   1.987669
    B  -0.962394  -0.003734   1.976795
    B  -1.260399  -0.000657  -1.798342
    B  -2.192774  -0.003671  -0.154770
    B   0.005834  -1.330494  -1.720195
    B  -1.484165  -1.461650  -0.841105
    B  -1.517938  -1.365976   0.876420
    B   1.491203  -1.334558   0.854002
    B  -0.013621  -1.461309   1.706193
    B  -0.001724  -2.142215   0.000871
    H  -0.024987   3.325171   0.013613
    H  -0.045601   2.236688   2.572128
    H  -2.184142   1.929031   1.261072
    H  -2.248895   2.237916  -1.246136
    H  -0.001303   2.025048  -2.694073
    H   2.268588   2.237907  -1.310229
    H   2.330411   2.030258   1.347169
    H   3.380309  -0.036718  -0.171843
    H   1.543488   0.005235   2.996293
    H  -1.595268   0.034081   2.972031
    H   1.845454  -0.036846  -2.839496
    H  -1.828922   0.005325  -2.832894
    H  -3.371156   0.034247  -0.104166
    H  -2.254726  -2.238017  -1.287984
    H   0.037871  -2.032614  -2.668597
    H  -2.342951  -2.066248   1.352812
    H  -0.012005  -2.236799   2.597740
    H   2.328182  -2.037224   1.300307
    H   2.127759  -2.092455  -1.228767
    H   0.039416  -3.320898  -0.023710
    C  -1.442026   1.292056   0.832623
    C   1.437372  -1.384176  -0.829875
