40
B18C2H20
    B   0.000000   2.138410   0.000636
    B   1.489353   1.451728  -0.860623
    B   0.000000   1.334238  -1.749152
    B  -1.489353   1.451728  -0.860623
    B  -1.500176   1.336198   0.871622
    B   1.500176   1.336198   0.871622
    B   1.270416   0.000000  -1.827656
    B   2.208286   0.000000  -0.181515
    B   0.937733   0.000000   2.004617
    B  -0.937733   0.000000   2.004617
    B  -1.270416   0.000000  -1.827656
    B  -2.208286   0.000000  -0.181515
    B   1.489353  -1.451728  -0.860623
    B   0.000000  -1.334238  -1.749152
    B  -1.489353  -1.451728  -0.860623
    B  -1.500176  -1.336198   0.871622
    B   1.500176  -1.336198   0.871622
    B   0.000000  -2.138410   0.000636
    H   0.000000   3.322809   0.020535
    H   0.000000   2.155659   2.539318
    H  -2.320190   2.034172   1.367158
    H  -2.258840   2.244751  -1.292719
    H   0.000000   2.041576  -2.702792
    H   2.258840   2.244751  -1.292719
    H   2.320190   2.034172   1.367158
    H   3.393333   0.000000  -0.133514
    H   1.542160   0.000000   3.021592
    H  -1.542160   0.000000   3.021592
    H   1.845558   0.000000  -2.865211
    H  -1.845558   0.000000  -2.865211
    H  -3.393333   0.000000  -0.133514
    H  -2.258840  -2.244751  -1.292719
    H   0.000000  -2.041576  -2.702792
    H  -2.320190  -2.034172   1.367158
    H   0.000000  -2.155659   2.539318
    H   2.320190  -2.034172   1.367158
    H   2.258840  -2.244751  -1.292719
    H   0.000000  -3.322809   0.020535
    C   0.000000   1.423388   1.702404
    C   0.000000  -1.423388   1.702404
