40
B18C2H20
    B   1.456763   1.457219  -0.832396
    B   0.000000   1.101977  -1.870582
    B  -1.456763   1.457219  -0.832396
    B  -0.974441   1.632183   0.949919
    B   0.974441   1.632183   0.949919
    B   1.449225  -0.012015  -1.702569
    B   2.162555  -0.046345  -0.028222
    B   1.456224  -0.004220   1.676722
    B  -1.456224  -0.004220   1.676722
    B  -1.449225  -0.012015  -1.702569
    B  -2.162555  -0.046345  -0.028222
    B   1.450354  -1.530659  -0.890805
    B   0.000000  -1.128876  -1.852932
    B  -1.450354  -1.530659  -0.890805
    B  -1.451901  -1.484869   0.829654
    B   1.451901  -1.484869   0.829654
    B   0.000000  -1.082224   1.880070
    B   0.000000  -2.166408  -0.057813
    H   0.000000   3.161996  -0.474344
    H   0.000000   1.148640   2.982536
    H  -1.536230   2.525824   1.470364
    H  -2.224274   2.300937  -1.133093
    H   0.000000   1.766275  -2.846475
    H   2.224274   2.300937  -1.133093
    H   1.536230   2.525824   1.470364
    H   3.334401   0.085105   0.050115
    H   2.223569   0.154677   2.558653
    H  -2.223569   0.154677   2.558653
    H   2.193987   0.030474  -2.620618
    H  -2.193987   0.030474  -2.620618
    H  -3.334401   0.085105   0.050115
    H  -2.155689  -2.350743  -1.366635
    H   0.000000  -1.649806  -2.915114
    H  -2.195972  -2.261461   1.322057
    H   0.000000  -1.603800   2.938971
    H   2.195972  -2.261461   1.322057
    H   2.155689  -2.350743  -1.366635
    H   0.000000  -3.346998   0.017557
    C   0.000000   0.719737   1.990249
    C   0.000000   2.087271  -0.358144
