40
B18C2H20
    B  -0.028379   2.115841  -0.017123
    B   1.466374   1.443070  -0.860406
    B  -0.014854   1.389337  -1.716442
    B  -1.529126   1.453941  -0.882355
    B  -1.493552   1.391621   0.845204
    B   1.604397   0.994681   0.926795
    B  -0.011723   1.443240   1.699404
    B   1.182671   0.000000  -1.879809
    B  -1.037583   0.000000   1.961623
    B  -1.253533   0.000000  -1.838617
    B  -2.217789   0.000000  -0.162187
    B   1.466374  -1.443070  -0.860406
    B  -0.014854  -1.389337  -1.716442
    B  -1.529126  -1.453941  -0.882355
    B  -1.493552  -1.391621   0.845204
    B   1.604397  -0.994681   0.926795
    B  -0.011723  -1.443240   1.699404
    B  -0.028379  -2.115841  -0.017123
    H   0.107527   3.287183   0.060773
    H   0.135942   2.225859   2.569392
    H  -2.268213   2.138962   1.337698
    H  -2.301492   2.229567  -1.328930
    H   0.023518   2.135830  -2.634359
    H   2.293080   2.226532  -1.166790
    H   2.490907   1.576521   1.439194
    H   3.188574   0.000000  -0.441640
    H   1.209773   0.000000   2.982070
    H  -1.548358   0.000000   3.025724
    H   1.849871   0.000000  -2.853472
    H  -1.775752   0.000000  -2.899524
    H  -3.397704   0.000000  -0.084092
    H  -2.301492  -2.229567  -1.328930
    H   0.023518  -2.135830  -2.634359
    H  -2.268213  -2.138962   1.337698
    H   0.135942  -2.225859   2.569392
    H   2.490907  -1.576521   1.439194
    H   2.293080  -2.226532  -1.166790
    H   0.107527  -3.287183   0.060773
    C   0.740947   0.000000   2.007568
    C   2.110068   0.000000  -0.361481
