40
B18C2H20
    B  -0.108149   2.222182  -0.001104
    B  -0.008670   1.440464  -1.699847
    B  -1.517911   1.451972  -0.864644
    B  -1.528807   1.417121   0.868575
    B  -0.007725   1.467172   1.692774
    B   1.121544  -0.015958  -1.798942
    B   2.126028  -0.035157  -0.010104
    B   1.061345  -0.013578   1.823194
    B  -1.010084   0.005912   1.889422
    B  -1.104604   0.006301  -1.841104
    B  -2.170282   0.007231  -0.054974
    B   1.488080  -1.508205  -0.851182
    B   0.001346  -1.416823  -1.719254
    B  -1.489899  -1.446494  -0.856380
    B  -1.496682  -1.413099   0.864568
    B   1.484749  -1.510366   0.855534
    B   0.001573  -1.451518   1.716342
    B  -0.005428  -2.224166   0.000243
    H   0.118804   3.377513  -0.001965
    H   0.129846   2.206979   2.600520
    H  -2.319564   2.137961   1.371195
    H  -2.290629   2.201029  -1.354535
    H   0.130109   2.158141  -2.625145
    H   2.124264   1.996963  -1.155988
    H   2.126450   1.987745   1.146157
    H   3.290525   0.140119   0.005048
    H   1.739977   0.108039   2.780382
    H  -1.553096   0.034168   2.939450
    H   1.779379   0.108558  -2.769809
    H  -1.636643   0.032969  -2.896740
    H  -3.352750   0.006800  -0.049445
    H  -2.291361  -2.168906  -1.339787
    H   0.042755  -2.058976  -2.711973
    H  -2.315741  -2.105130   1.362937
    H   0.037813  -2.108925   2.698989
    H   2.355161  -2.142213   1.346026
    H   2.354576  -2.146091  -1.341333
    H  -0.019487  -3.406108  -0.005462
    C   1.359132   1.328322  -0.790664
    C   1.354058   1.328055   0.779295
