40
B18C2H20
    B  -0.094179   2.199463  -0.007382
    B  -0.012863   1.400123  -1.711450
    B  -1.517826   1.458523  -0.862575
    B  -1.541099   1.355915   0.876535
    B  -0.007992   1.465323   1.698795
    B   1.191220  -0.017289  -1.776817
    B   2.137420  -0.037758  -0.022129
    B   1.054583  -0.013646   1.844777
    B  -0.943530   0.005476   1.955352
    B  -1.188230   0.003804  -1.825414
    B  -2.201049   0.004346  -0.158016
    B   1.492206  -1.504142  -0.850364
    B   0.001830  -1.379138  -1.726612
    B  -1.485368  -1.454209  -0.854678
    B  -1.512095  -1.348753   0.872004
    B   1.480375  -1.511570   0.857480
    B   0.002639  -1.456083   1.711608
    B  -0.004336  -2.207837  -0.004335
    H   0.108405   3.359295  -0.008267
    H   0.122022   2.234814   2.583050
    H  -2.337005   2.067573   1.384365
    H  -2.265658   2.248278  -1.327546
    H   0.127781   2.110442  -2.642017
    H   2.112466   2.016478  -1.155284
    H   2.117591   1.994553   1.143229
    H   3.300675   0.142492   0.009246
    H   1.755533   0.108892   2.785555
    H  -1.482966   0.032698   3.006888
    H   1.839789   0.113049  -2.752920
    H  -1.704584   0.030236  -2.888589
    H  -3.383262   0.003773  -0.150229
    H  -2.264910  -2.213687  -1.317341
    H   0.047629  -2.014816  -2.723255
    H  -2.338636  -2.027507   1.377004
    H   0.026500  -2.134015   2.680979
    H   2.345717  -2.152608   1.345035
    H   2.346224  -2.158045  -1.341828
    H  -0.033527  -3.389420  -0.010324
    C   1.359673   1.333708  -0.790212
    C   1.348836   1.331269   0.775952
