40
B18C2H20
    B   0.000000   2.167784   0.006271
    B   1.451594   1.463616  -0.865941
    B   0.000000   1.027323  -1.904748
    B  -1.451594   1.463616  -0.865941
    B  -1.454561   1.453172   0.839649
    B   1.454561   1.453172   0.839649
    B   1.455002   0.000000  -1.768724
    B   2.163166   0.000000  -0.052572
    B   0.974440   0.000000   1.890078
    B  -0.974440   0.000000   1.890078
    B  -1.455002   0.000000  -1.768724
    B  -2.163166   0.000000  -0.052572
    B   1.451594  -1.463616  -0.865941
    B   0.000000  -1.027323  -1.904748
    B  -1.451594  -1.463616  -0.865941
    B  -1.454561  -1.453172   0.839649
    B   1.454561  -1.453172   0.839649
    B   0.000000  -2.167784   0.006271
    H   0.000000   3.345544   0.088532
    H   0.000000   2.001188   2.494881
    H  -2.222376   2.137897   1.417146
    H  -2.194097   2.280745  -1.290456
    H   0.000000   1.683697  -2.889055
    H   2.194097   2.280745  -1.290456
    H   2.222376   2.137897   1.417146
    H   3.334759   0.000000   0.102595
    H   1.537944   0.000000   2.923316
    H  -1.537944   0.000000   2.923316
    H   2.161104   0.000000  -2.716391
    H  -2.161104   0.000000  -2.716391
    H  -3.334759   0.000000   0.102595
    H  -2.194097  -2.280745  -1.290456
    H   0.000000  -1.683697  -2.889055
    H  -2.222376  -2.137897   1.417146
    H   0.000000  -2.001188   2.494881
    H   2.222376  -2.137897   1.417146
    H   2.194097  -2.280745  -1.290456
    H   0.000000  -3.345544   0.088532
    C   0.000000   1.358829   1.625156
    C   0.000000  -1.358829   1.625156
