40
B18C2H20
    B   1.468230   1.455648  -0.833953
    B   0.000000   1.096803  -1.878411
    B  -1.468230   1.455648  -0.833953
    B  -0.941296   1.619001   0.938523
    B   0.941296   1.619001   0.938523
    B   1.435486  -0.020222  -1.707965
    B   2.168913  -0.031972  -0.031734
    B   1.499323  -0.000065   1.666732
    B  -1.499323  -0.000065   1.666732
    B  -1.435486  -0.020222  -1.707965
    B  -2.168913  -0.031972  -0.031734
    B   1.397704  -1.547875  -0.897822
    B   0.000000  -1.082893  -1.915961
    B  -1.397704  -1.547875  -0.897822
    B  -1.474550  -1.461887   0.813678
    B   1.474550  -1.461887   0.813678
    B   0.000000  -1.040359   1.848471
    B   0.000000  -2.159131   0.065296
    H   0.000000   3.149196  -0.449454
    H   0.000000   1.021949   2.985627
    H  -1.475863   2.497075   1.511182
    H  -2.232916   2.302157  -1.132125
    H   0.000000   1.795108  -2.831702
    H   2.232916   2.302157  -1.132125
    H   1.475863   2.497075   1.511182
    H   3.341794   0.092923   0.032691
    H   2.293965   0.189354   2.515984
    H  -2.293965   0.189354   2.515984
    H   2.201769   0.024337  -2.608976
    H  -2.201769   0.024337  -2.608976
    H  -3.341794   0.092923   0.032691
    H  -2.086541  -2.381080  -1.375197
    H   0.000000  -1.620242  -2.969331
    H  -2.232031  -2.235629   1.291566
    H   0.000000  -1.507354   2.932729
    H   2.232031  -2.235629   1.291566
    H   2.086541  -2.381080  -1.375197
    H   0.000000  -3.334408   0.195003
    C   0.000000   0.604237   1.986350
    C   0.000000   2.073562  -0.333514
