40
B18C2H20
    B   0.000000   2.176123   0.006812
    B   1.476952   1.457044  -0.858890
    B  -1.476952   1.457044  -0.858890
    B  -1.481503   1.412194   0.862431
    B   1.481503   1.412194   0.862431
    B   1.061793  -0.009162  -1.842123
    B   2.129937   0.002631  -0.077328
    B   0.988520  -0.016794   1.910462
    B  -0.988520  -0.016794   1.910462
    B  -1.061793  -0.009162  -1.842123
    B  -2.129937   0.002631  -0.077328
    B   1.479436  -1.455340  -0.861915
    B   0.000000  -1.494220  -1.721657
    B  -1.479436  -1.455340  -0.861915
    B  -1.491145  -1.411021   0.862197
    B   1.491145  -1.411021   0.862197
    B   0.000000  -1.492159   1.718196
    B   0.000000  -2.221909   0.005090
    H   0.000000   3.353114   0.016981
    H   0.000000   2.016560   2.433770
    H  -2.247019   2.135473   1.391728
    H  -2.225460   2.208026  -1.373873
    H   0.000000   1.991316  -2.446740
    H   2.225460   2.208026  -1.373873
    H   2.247019   2.135473   1.391728
    H   3.311112   0.048065  -0.071850
    H   1.554845   0.092771   2.938961
    H  -1.554845   0.092771   2.938961
    H   1.593348   0.092624  -2.890374
    H  -1.593348   0.092624  -2.890374
    H  -3.311112   0.048065  -0.071850
    H  -2.330424  -2.114675  -1.351523
    H   0.000000  -2.174376  -2.687422
    H  -2.354242  -2.050032   1.357282
    H   0.000000  -2.203841   2.661687
    H   2.354242  -2.050032   1.357282
    H   2.330424  -2.114675  -1.351523
    H   0.000000  -3.403799   0.015707
    C   0.000000   1.334361   1.594215
    C   0.000000   1.335223  -1.586739
