40
B18C2H20
    B   1.339693   1.484957  -0.888207
    B   0.000000   1.018359  -2.073106
    B  -1.339693   1.484957  -0.888207
    B  -1.317561   1.446426   0.876404
    B   1.317561   1.446426   0.876404
    B   1.409990   0.004589  -1.780126
    B   2.134710   0.046739  -0.056202
    B   1.006285  -0.060685   1.942915
    B  -1.006285  -0.060685   1.942915
    B  -1.409990   0.004589  -1.780126
    B  -2.134710   0.046739  -0.056202
    B   1.499369  -1.434392  -0.856667
    B   0.000000  -1.197162  -1.805442
    B  -1.499369  -1.434392  -0.856667
    B  -1.477259  -1.433224   0.861373
    B   1.477259  -1.433224   0.861373
    B   0.000000  -1.535589   1.724055
    B   0.000000  -2.168167  -0.007899
    H   0.000000   3.186683  -0.018339
    H   0.000000   1.898366   2.676129
    H  -2.056771   2.253268   1.317669
    H  -2.079497   2.340428  -1.234256
    H   0.000000   1.738438  -3.008036
    H   2.079497   2.340428  -1.234256
    H   2.056771   2.253268   1.317669
    H   3.306210   0.143653   0.057139
    H   1.704650   0.033428   2.891472
    H  -1.704650   0.033428   2.891472
    H   2.141083   0.058946  -2.709903
    H  -2.141083   0.058946  -2.709903
    H  -3.306210   0.143653   0.057139
    H  -2.273924  -2.219253  -1.283112
    H   0.000000  -1.836437  -2.800570
    H  -2.318528  -2.097725   1.360849
    H   0.000000  -2.208224   2.698810
    H   2.318528  -2.097725   1.360849
    H   2.273924  -2.219253  -1.283112
    H   0.000000  -3.346930  -0.089955
    C   0.000000   1.205418   1.847610
    C   0.000000   2.110935  -0.141685
