40
B18C2H20
    B   1.482806   1.441509  -0.854853
    B   0.000000   1.300767  -1.762446
    B  -1.482806   1.441509  -0.854853
    B  -1.534389   1.295394   0.884827
    B   1.534389   1.295394   0.884827
    B   0.000000   1.440909   1.705616
    B   1.277902   0.000000  -1.825528
    B   2.220516   0.000000  -0.197716
    B   0.940280   0.000000   2.021671
    B  -0.940280   0.000000   2.021671
    B  -1.277902   0.000000  -1.825528
    B  -2.220516   0.000000  -0.197716
    B   1.482806  -1.441509  -0.854853
    B   0.000000  -1.300767  -1.762446
    B  -1.482806  -1.441509  -0.854853
    B  -1.534389  -1.295394   0.884827
    B   1.534389  -1.295394   0.884827
    B   0.000000  -1.440909   1.705616
    H   0.000000   3.056319  -0.000066
    H   0.000000   2.305223   2.509033
    H  -2.283917   2.097911   1.318710
    H  -2.179497   2.304475  -1.257624
    H   0.000000   2.104822  -2.627162
    H   2.179497   2.304475  -1.257624
    H   2.283917   2.097911   1.318710
    H   3.403269   0.000000  -0.168637
    H   1.555936   0.000000   3.031791
    H  -1.555936   0.000000   3.031791
    H   1.838722   0.000000  -2.867039
    H  -1.838722   0.000000  -2.867039
    H  -3.403269   0.000000  -0.168637
    H  -2.179497  -2.304475  -1.257624
    H   0.000000  -2.104822  -2.627162
    H  -2.283917  -2.097911   1.318710
    H   0.000000  -2.305223   2.509033
    H   2.283917  -2.097911   1.318710
    H   2.179497  -2.304475  -1.257624
    H   0.000000  -3.056319  -0.000066
    C   0.000000   1.974880  -0.001504
    C   0.000000  -1.974880  -0.001504
