40
B18C2H20
    B   0.000000   2.077793   0.023018
    B   1.504427   1.432656  -0.879384
    B   0.000000   1.381647  -1.714250
    B  -1.504427   1.432656  -0.879384
    B  -1.557153   1.164327   0.872615
    B   1.557153   1.164327   0.872615
    B   0.000000   1.439916   1.705690
    B   1.242333   0.000000  -1.881053
    B   2.307694   0.000000  -0.377658
    B  -1.242333   0.000000  -1.881053
    B  -2.307694   0.000000  -0.377658
    B   1.504427  -1.432656  -0.879384
    B   0.000000  -1.381647  -1.714250
    B  -1.504427  -1.432656  -0.879384
    B  -1.557153  -1.164327   0.872615
    B   1.557153  -1.164327   0.872615
    B   0.000000  -1.439916   1.705690
    B   0.000000  -2.077793   0.023018
    H   0.000000   3.256027   0.110601
    H   0.000000   2.150693   2.643971
    H  -2.356545   1.796912   1.470127
    H  -2.246955   2.293287  -1.209498
    H   0.000000   2.150660  -2.614139
    H   2.246955   2.293287  -1.209498
    H   2.356545   1.796912   1.470127
    H   3.487073   0.000000  -0.307197
    H   1.293078   0.000000   2.923338
    H  -1.293078   0.000000   2.923338
    H   1.741457   0.000000  -2.952715
    H  -1.741457   0.000000  -2.952715
    H  -3.487073   0.000000  -0.307197
    H  -2.246955  -2.293287  -1.209498
    H   0.000000  -2.150660  -2.614139
    H  -2.356545  -1.796912   1.470127
    H   0.000000  -2.150693   2.643971
    H   2.356545  -1.796912   1.470127
    H   2.246955  -2.293287  -1.209498
    H   0.000000  -3.256027   0.110601
    C  -0.860554   0.000000   1.932809
    C   0.860554   0.000000   1.932809
