40
B18C2H20
    B   1.338893   1.502053  -0.906860
    B   0.000000   0.922998  -2.074939
    B  -1.338893   1.502053  -0.906860
    B  -1.247214   1.493083   0.882392
    B   1.247214   1.493083   0.882392
    B   1.470138  -0.003837  -1.752451
    B   2.112603   0.050477  -0.001446
    B   1.055799  -0.065177   1.884013
    B  -1.055799  -0.065177   1.884013
    B  -1.470138  -0.003837  -1.752451
    B  -2.112603   0.050477  -0.001446
    B   1.491259  -1.440498  -0.844285
    B   0.000000  -1.065604  -1.836549
    B  -1.491259  -1.440498  -0.844285
    B  -1.464753  -1.482321   0.864742
    B   1.464753  -1.482321   0.864742
    B   0.000000  -1.556698   1.735875
    B   0.000000  -2.179634  -0.014387
    H   0.000000   3.231480  -0.151640
    H   0.000000   1.800422   2.782792
    H  -1.985237   2.313521   1.300385
    H  -2.091178   2.353600  -1.236196
    H   0.000000   1.602164  -3.040635
    H   2.091178   2.353600  -1.236196
    H   1.985237   2.313521   1.300385
    H   3.278754   0.173005   0.138420
    H   1.795611   0.013563   2.804695
    H  -1.795611   0.013563   2.804695
    H   2.236167   0.072015  -2.649945
    H  -2.236167   0.072015  -2.649945
    H  -3.278754   0.173005   0.138420
    H  -2.254603  -2.228727  -1.285320
    H   0.000000  -1.735311  -2.813901
    H  -2.307012  -2.150845   1.356857
    H   0.000000  -2.170527   2.748677
    H   2.307012  -2.150845   1.356857
    H   2.254603  -2.228727  -1.285320
    H   0.000000  -3.355395  -0.133684
    C   0.000000   1.153329   1.920503
    C   0.000000   2.152953  -0.231841
