40
B18C2H20
    B  -0.002434   2.133075  -0.001581
    B   0.002873   1.333391  -1.740112
    B  -1.486957   1.454609  -0.858708
    B  -1.503365   1.337640   0.871473
    B   1.496943   1.333450   0.864478
    B   1.270809   0.001050  -1.819665
    B   2.206011   0.001044  -0.185719
    B   0.942568   0.000939   2.004783
    B  -0.943036   0.000962   2.007845
    B  -1.268172   0.002926  -1.824689
    B  -2.212047   0.002900  -0.181969
    B   1.493879  -1.449299  -0.861661
    B   0.001288  -1.333675  -1.745269
    B  -1.491948  -1.449426  -0.861471
    B  -1.508748  -1.338228   0.872903
    B   1.508119  -1.337762   0.871107
    B   0.000728  -1.449058   1.725414
    B   0.001396  -2.143906   0.000788
    H   0.011064   3.315966   0.005512
    H   0.005675   2.170479   2.522317
    H  -2.317619   2.048018   1.359358
    H  -2.245820   2.253799  -1.297042
    H   0.018369   2.043322  -2.689575
    H   2.185756   2.171684  -1.255857
    H   2.318412   2.042044   1.338578
    H   3.389995   0.022674  -0.155087
    H   1.561049   0.022646   3.014816
    H  -1.551417   0.021575   3.024233
    H   1.848939   0.021605  -2.853581
    H  -1.832400   0.011635  -2.867841
    H  -3.397566   0.011689  -0.146621
    H  -2.260953  -2.236637  -1.305724
    H   0.006056  -2.027738  -2.708116
    H  -2.339850  -2.032820   1.358090
    H   0.005044  -2.230125   2.618480
    H   2.346245  -2.024308   1.354902
    H   2.268617  -2.231238  -1.304290
    H   0.004986  -3.329567   0.001925
    C  -0.000305   1.427129   1.695935
    C   1.467813   1.427536  -0.848088
