40
B18C2H20
    B   1.456026   1.463745  -0.843318
    B   0.000000   1.087836  -1.890913
    B  -1.456026   1.463745  -0.843318
    B  -0.989450   1.610793   0.931922
    B   0.989450   1.610793   0.931922
    B   1.460543  -0.009603  -1.699457
    B   2.152293  -0.028192  -0.012322
    B   1.442346  -0.014856   1.700183
    B  -1.442346  -0.014856   1.700183
    B  -1.460543  -0.009603  -1.699457
    B  -2.152293  -0.028192  -0.012322
    B   1.415806  -1.527318  -0.887541
    B   0.000000  -1.053046  -1.897302
    B  -1.415806  -1.527318  -0.887541
    B  -1.471105  -1.483891   0.832861
    B   1.471105  -1.483891   0.832861
    B   0.000000  -1.158932   1.852309
    B   0.000000  -2.169347   0.037711
    H   0.000000   3.160860  -0.481732
    H   0.000000   1.185180   2.971348
    H  -1.548272   2.507281   1.452316
    H  -2.225948   2.307811  -1.136921
    H   0.000000   1.750157  -2.867920
    H   2.225948   2.307811  -1.136921
    H   1.548272   2.507281   1.452316
    H   3.325122   0.097072   0.061044
    H   2.212957   0.151308   2.577693
    H  -2.212957   0.151308   2.577693
    H   2.224292   0.020397  -2.602404
    H  -2.224292   0.020397  -2.602404
    H  -3.325122   0.097072   0.061044
    H  -2.103803  -2.355699  -1.374445
    H   0.000000  -1.582027  -2.955166
    H  -2.236896  -2.251803   1.304999
    H   0.000000  -1.673780   2.915402
    H   2.236896  -2.251803   1.304999
    H   2.103803  -2.355699  -1.374445
    H   0.000000  -3.350527   0.102486
    C   0.000000   0.745048   1.983962
    C   0.000000   2.084489  -0.379135
