40
B18C2H20
    B   1.455855   1.457663  -0.835319
    B   0.000000   1.107727  -1.872329
    B  -1.455855   1.457663  -0.835319
    B  -0.975302   1.628643   0.947250
    B   0.975302   1.628643   0.947250
    B   1.446516  -0.011699  -1.703569
    B   2.161782  -0.044249  -0.026254
    B   1.456576  -0.006206   1.679985
    B  -1.456576  -0.006206   1.679985
    B  -1.446516  -0.011699  -1.703569
    B  -2.161782  -0.044249  -0.026254
    B   1.450420  -1.528581  -0.888695
    B   0.000000  -1.132345  -1.850902
    B  -1.450420  -1.528581  -0.888695
    B  -1.450851  -1.486106   0.831529
    B   1.450851  -1.486106   0.831529
    B   0.000000  -1.082879   1.883136
    B   0.000000  -2.167392  -0.062347
    H   0.000000   3.163932  -0.471167
    H   0.000000   1.151499   2.981888
    H  -1.536920   2.522759   1.467324
    H  -2.225627   2.299985  -1.134738
    H   0.000000   1.771422  -2.848686
    H   2.225627   2.299985  -1.134738
    H   1.536920   2.522759   1.467324
    H   3.333427   0.089340   0.050697
    H   2.225373   0.151886   2.560656
    H  -2.225373   0.151886   2.560656
    H   2.189879   0.029251  -2.622880
    H  -2.189879   0.029251  -2.622880
    H  -3.333427   0.089340   0.050697
    H  -2.157446  -2.346940  -1.365281
    H   0.000000  -1.653294  -2.913084
    H  -2.195237  -2.263611   1.322095
    H   0.000000  -1.602430   2.943267
    H   2.195237  -2.263611   1.322095
    H   2.157446  -2.346940  -1.365281
    H   0.000000  -3.347888   0.013896
    C   0.000000   0.718879   1.991004
    C   0.000000   2.088499  -0.360005
