40
B18C2H20
    B  -0.096944   2.191612  -0.006721
    B  -0.013938   1.377411  -1.715651
    B  -1.522150   1.456547  -0.864377
    B  -1.542967   1.342174   0.876214
    B  -0.007842   1.466710   1.697713
    B   1.225355  -0.017418  -1.771568
    B   2.139714  -0.039888  -0.028347
    B   1.050096  -0.013238   1.847398
    B  -0.931271   0.004153   1.969930
    B  -1.219818   0.003226  -1.826694
    B  -2.212955   0.003232  -0.170300
    B   1.491466  -1.503856  -0.848812
    B   0.001469  -1.355130  -1.733491
    B  -1.485122  -1.451169  -0.853391
    B  -1.513401  -1.338271   0.873340
    B   1.481490  -1.514411   0.859590
    B   0.003939  -1.457776   1.714181
    B  -0.005861  -2.199394  -0.006128
    H   0.106413   3.351314  -0.015603
    H   0.118890   2.240267   2.578930
    H  -2.335696   2.055711   1.386982
    H  -2.257372   2.261418  -1.323636
    H   0.125556   2.086495  -2.647631
    H   2.105790   2.027607  -1.153206
    H   2.116453   1.995803   1.142175
    H   3.302303   0.143128   0.014530
    H   1.754400   0.110018   2.785946
    H  -1.468478   0.037657   3.022294
    H   1.875766   0.113495  -2.746137
    H  -1.731786   0.030321  -2.891859
    H  -3.395053   0.002533  -0.154493
    H  -2.254253  -2.222366  -1.314766
    H   0.050538  -1.988432  -2.731694
    H  -2.340282  -2.015323   1.380337
    H   0.027343  -2.139910   2.680605
    H   2.344306  -2.159456   1.345718
    H   2.338244  -2.168995  -1.337925
    H  -0.034357  -3.380926  -0.018018
    C   1.361350   1.334112  -0.790732
    C   1.348664   1.331014   0.775568
