42
19-2
    B  -1.703000   1.277000  -1.098000
    B   1.703000   1.277000  -1.098000
    B   2.649000  -0.198000  -1.006000
    B  -2.649000  -0.198000  -1.006000
    B  -1.798029  -1.760228  -0.588658
    B   1.725793  -1.708774  -0.571401
    B  -1.022394   1.740665   0.644535
    B   1.024207   1.731774   0.641401
    B  -2.707122   0.964282   0.274551
    B  -2.683000  -0.760000   0.646000
    B  -1.047000  -1.270000   1.171000
    B   1.047000  -1.270000   1.171000
    B   2.725319  -0.812119   0.594545
    B   2.753424   0.990562   0.324123
    B  -1.027000  -0.332000  -1.687000
    B   1.005349  -0.351386  -1.785517
    B  -1.676425   0.311805   1.698618
    B  -0.062453   0.339912   1.728831
    B   1.742332   0.398505   1.812972
    H   2.180332   0.610505   2.887972
    H  -0.062453   0.567912   2.884831
    H  -2.114425   0.523805   2.773618
    H  -3.597000  -1.356000   1.097000
    H  -3.621122   1.687282   0.465551
    H  -1.048394   2.878665   0.930535
    H   1.050207   2.869774   0.927401
    H   3.667424   1.713562   0.515123
    H   3.639319  -1.408119   1.044545
    H   1.073000  -2.215000   1.867000
    H  -1.073000  -2.215000   1.867000
    H  -2.138029  -2.826228  -0.966658
    H  -3.529000  -0.350000  -1.779000
    H  -2.043000   2.120000  -1.851000
    H  -1.036000  -0.558000  -2.836000
    H   1.014349  -0.578386  -2.934517
    H   3.529000  -0.350000  -1.779000
    H   2.065793  -2.775774  -0.948401
    H   0.000000  -2.536000  -0.859000
    H   2.043000   2.120000  -1.851000
    H   0.000000   2.020000  -1.758000
    C   0.000000   1.202000  -1.048000
    C   0.000000  -1.510000  -0.513000
