42
19-2
    B  -1.761358   1.628772  -0.997871
    B   1.156722   0.884557  -1.344160
    B   2.351627  -0.419207  -1.125092
    B  -2.314367  -0.014661  -1.214976
    B  -1.211886  -1.397792  -0.817095
    B   1.798313  -1.870594  -0.312102
    B  -1.116822   1.726078   0.770898
    B   0.885985   1.666846   0.622449
    B  -2.693472   0.869668   0.261638
    B  -2.482200  -0.816677   0.327246
    B  -0.914423  -1.320924   1.154765
    B   1.115326  -1.315773   1.334888
    B   2.707455  -0.690179   0.582641
    B   2.458301   0.894042  -0.021161
    B  -0.621875   0.438003  -1.763970
    B   0.654559  -1.066361  -1.495743
    B  -1.753199   0.198233   1.573100
    B  -0.012675   0.307478   1.845113
    B   1.742297   0.421484   1.528338
    H   2.261479   0.782229   2.523767
    H  -0.011506   0.504863   3.005659
    H  -2.277290   0.260098   2.629190
    H  -3.373631  -1.568504   0.526614
    H  -3.735163   1.371539   0.502712
    H  -1.235670   2.770107   1.298324
    H   1.151531   2.753664   0.991697
    H   3.314202   1.703188  -0.111518
    H   3.747856  -1.056054   1.005505
    H   1.224882  -2.081506   2.220562
    H  -1.166802  -2.211282   1.884247
    H  -1.564349  -2.312284  -1.469304
    H  -3.081075  -0.244490  -2.083454
    H  -2.216609   2.519183  -1.627987
    H  -0.575101   0.665571  -2.921691
    H   0.581116  -1.667847  -2.504130
    H   3.121577  -0.502977  -2.018319
    H   2.246527  -2.938062  -0.535507
    H   0.037844  -2.987697  -0.074696
    H   1.497377   1.510735  -2.288756
    H   0.053737   2.753376  -1.120983
    C  -0.172313   1.784393  -0.702616
    C   0.183073  -1.925235  -0.034222
