42
19-4
    B  -1.719120   1.119462  -1.112513
    B   0.004962   1.392971  -1.161825
    B   1.760772   1.275431  -0.961656
    B   2.719674  -0.203165  -0.912339
    B  -1.149536  -1.580424  -0.106366
    B   1.798331  -1.666853  -0.948241
    B  -1.115715   1.816029   0.495542
    B   0.913462   1.623776   0.577149
    B  -2.682732   0.841481   0.311792
    B  -2.323402  -0.759032   0.948093
    B  -0.663264  -0.761635   1.698849
    B   0.662419  -1.711544   0.500783
    B   2.337960  -1.056593   0.604674
    B   2.505453   0.691976   0.517244
    B  -0.899734  -0.324467  -1.731484
    B   1.130269  -0.183900  -1.867746
    B  -1.808383   0.677990   1.788116
    B  -0.159938   0.998161   1.902537
    B   1.188472  -0.040467   1.522783
    H   1.545198  -0.204457   2.645963
    H   0.026751   1.601570   2.900327
    H  -2.392759   1.011074   2.759032
    H  -3.176375  -1.482657   1.319037
    H  -3.775608   1.278521   0.293498
    H  -1.303545   2.977689   0.600179
    H   1.194793   2.706539   0.962765
    H   3.377172   1.261715   1.074834
    H   3.117782  -1.701521   1.214520
    H   0.564047  -2.824503   0.885721
    H  -0.623598  -1.484973   2.630617
    H  -1.562935  -2.681623  -0.190517
    H  -3.133627  -0.815623  -1.253577
    H  -2.335949   1.685985  -1.942577
    H  -1.227858  -0.553167  -2.838761
    H   1.166506  -0.235913  -3.045366
    H   3.757272  -0.239724  -1.475907
    H   2.207539  -2.656015  -1.442955
    H  -0.011606  -2.351675  -1.825654
    H   2.255557   2.167607  -1.554826
    H  -0.039136   2.307211  -1.911140
    C  -2.307439  -0.411567  -0.681646
    C   0.175868  -1.497691  -1.188960
