42
19-5
    B  -1.747190   1.229576  -1.094256
    B   0.012846   1.319895  -1.195828
    B   1.767280   1.265273  -1.089105
    B   2.690814  -0.193332  -0.965559
    B  -1.745851  -1.652382  -0.551601
    B  -0.026625  -1.548183  -0.636100
    B   1.687505  -1.546994  -0.521391
    B  -1.024836   1.648858   0.548403
    B   1.033087   1.629978   0.516750
    B  -2.675098   0.924537   0.357113
    B  -2.652003  -0.775010   0.689158
    B  -0.980457  -1.280629   1.102825
    B   0.985557  -1.247256   1.150076
    B   2.676203   0.947820   0.331290
    B  -1.032004  -0.305774  -1.674431
    B   1.057762  -0.316754  -1.736074
    B  -1.705593   0.302345   1.650300
    B   0.038228   0.336539   1.611768
    B   1.737160   0.358474   1.736717
    H   2.242698   0.480109   2.787793
    H   0.080947   0.586534   2.780649
    H  -2.112262   0.508321   2.740922
    H  -3.611062  -1.340660   1.078209
    H  -3.648988   1.571169   0.509821
    H  -1.110821   2.758548   0.915989
    H   1.116274   2.740806   0.908262
    H   3.652735   1.530143   0.646578
    H   3.327725  -1.221527   1.057280
    H   1.045078  -2.149251   1.895908
    H  -0.964360  -2.184182   1.866582
    H  -2.252971  -2.633017  -0.952240
    H  -3.410692  -0.331395  -1.520579
    H  -2.280076   1.974712  -1.838378
    H  -1.236160  -0.533053  -2.816303
    H   1.096152  -0.575153  -2.876738
    H   3.669921  -0.432319  -1.579665
    H   2.142225  -2.603911  -0.785166
    H  -0.008941  -2.674962  -1.017545
    H   2.205445   2.096417  -1.805046
    H   0.014266   2.213764  -1.964634
    C  -2.561288  -0.197176  -0.864759
    C   2.508372  -0.676896   0.599006
