42
19-3
    B  -0.000635   1.377919  -1.221639
    B   2.683704  -0.214405  -0.979327
    B  -2.683096  -0.216603  -0.979560
    B  -1.759230  -1.625130  -0.530340
    B   0.000826  -1.564922  -0.538232
    B   1.760470  -1.622746  -0.528971
    B  -1.020514   1.602241   0.581639
    B   1.018172   1.602998   0.581283
    B  -2.683806   0.939997   0.350014
    B  -2.718669  -0.763215   0.663105
    B  -1.054877  -1.294365   1.130007
    B   1.056256  -1.293525   1.130554
    B   2.719349  -0.760266   0.664107
    B   2.683508   0.943443   0.350266
    B  -1.016738  -0.357678  -1.666513
    B   1.017651  -0.356586  -1.666537
    B  -1.760228   0.302427   1.681918
    B  -0.000423   0.329504   1.625018
    B   1.759027   0.304649   1.681363
    H   2.184293   0.529613   2.759022
    H  -0.001227   0.649117   2.764954
    H  -2.187181   0.526209   2.759113
    H  -3.656224  -1.304123   1.134506
    H  -3.547091   1.737440   0.440521
    H  -1.141368   2.745041   0.834798
    H   1.139095   2.745981   0.833786
    H   3.547369   1.740080   0.440959
    H   3.657846  -1.299454   1.135575
    H   1.087740  -2.179528   1.903768
    H  -1.085950  -2.180878   1.902709
    H  -2.184888  -2.660301  -0.904422
    H  -3.546752  -0.201832  -1.781474
    H  -2.018063   1.873215  -1.630493
    H  -1.143605  -0.455468  -2.832526
    H   1.144881  -0.454639  -2.832456
    H   3.547866  -0.197454  -1.780606
    H   2.188618  -2.657176  -0.902677
    H   0.001381  -2.651704  -1.008484
    H   2.015006   1.874139  -1.630960
    H  -0.001120   2.264850  -2.000552
    C  -1.633536   1.112764  -0.968235
    C   1.632163   1.113369  -0.967981
