42
19-2
    B  -1.780159   1.483146  -0.970783
    B   1.579417   1.077314  -1.242100
    B   2.610967  -0.337594  -1.014429
    B  -2.592266  -0.089466  -1.058542
    B  -1.596722  -1.481482  -0.680121
    B   1.764861  -1.748056  -0.331846
    B  -1.117462   1.661112   0.737733
    B   0.966059   1.602041   0.465196
    B  -2.722408   0.922278   0.370605
    B  -2.640236  -0.792553   0.553191
    B  -0.983614  -1.300829   1.066249
    B   1.088136  -1.246314   1.280123
    B   2.703571  -0.708248   0.703339
    B   2.629921   0.944055   0.178183
    B  -0.963996   0.036609  -1.723891
    B   1.059930  -0.718735  -1.683313
    B  -1.765653   0.241110   1.666037
    B  -0.010580   0.321246   1.741577
    B   1.749432   0.424114   1.611268
    H   2.203239   0.749720   2.649626
    H  -0.012384   0.535360   2.900323
    H  -2.212754   0.359487   2.752212
    H  -3.545874  -1.446647   0.933777
    H  -3.679584   1.570824   0.614428
    H  -1.128089   2.754258   1.164664
    H   1.053960   2.757063   0.676618
    H   3.534695   1.694128   0.291423
    H   3.653833  -1.216398   1.187434
    H   1.114904  -2.110152   2.075337
    H  -1.030171  -2.296672   1.689258
    H  -1.957297  -2.495860  -1.157890
    H  -3.458749  -0.254767  -1.844090
    H  -2.140269   2.376744  -1.654315
    H  -0.907967  -0.004117  -2.890961
    H   1.026406  -1.112243  -2.783559
    H   3.496690  -0.472789  -1.786254
    H   2.124503  -2.846367  -0.581129
    H   0.044621  -2.662243  -0.779384
    H   1.906938   1.847313  -2.077044
    H  -0.056648   2.238825  -1.593861
    C  -0.111304   1.361286  -0.948004
    C   0.102102  -1.610498  -0.503085
