42
19-2
    B  -1.781296   1.503464  -0.968651
    B   1.547800   1.057527  -1.243994
    B   2.592823  -0.351550  -1.019902
    B  -2.575839  -0.079371  -1.071122
    B  -1.576403  -1.475616  -0.692854
    B   1.765290  -1.766234  -0.312760
    B  -1.111692   1.660611   0.737266
    B   0.953689   1.604051   0.470734
    B  -2.718564   0.919384   0.364638
    B  -2.626563  -0.792144   0.539482
    B  -0.972044  -1.302399   1.059680
    B   1.093039  -1.248775   1.289866
    B   2.698915  -0.702761   0.701869
    B   2.615225   0.937550   0.163371
    B  -0.951608   0.078054  -1.728601
    B   1.043614  -0.762901  -1.665196
    B  -1.755737   0.235240   1.656496
    B  -0.004668   0.323245   1.744664
    B   1.747351   0.428483   1.605736
    H   2.202759   0.761449   2.634174
    H  -0.004605   0.536881   2.901823
    H  -2.205968   0.349240   2.742116
    H  -3.533202  -1.453987   0.913102
    H  -3.682615   1.557480   0.609278
    H  -1.124116   2.749750   1.171159
    H   1.046578   2.756468   0.688000
    H   3.519427   1.689146   0.263653
    H   3.657272  -1.200358   1.187354
    H   1.120025  -2.104150   2.088951
    H  -1.023104  -2.295772   1.682558
    H  -1.937197  -2.475423  -1.176710
    H  -3.438508  -0.248378  -1.863023
    H  -2.148307   2.402002  -1.643615
    H  -0.882240   0.046719  -2.901912
    H   0.999299  -1.167689  -2.760365
    H   3.475620  -0.482492  -1.799520
    H   2.132475  -2.861201  -0.551003
    H   0.055857  -2.673706  -0.754285
    H   1.864583   1.819794  -2.092392
    H  -0.061637   2.267330  -1.545302
    C  -0.131892   1.391338  -0.920232
    C   0.116167  -1.624300  -0.500530
