42
19-2
    B  -1.791627   1.505147  -0.969347
    B   1.564987   1.059857  -1.241759
    B   2.602705  -0.351012  -1.020974
    B  -2.588223  -0.083270  -1.067168
    B  -1.581727  -1.472653  -0.689023
    B   1.767589  -1.763050  -0.317588
    B  -1.119462   1.663605   0.735103
    B   0.966268   1.603614   0.472491
    B  -2.728068   0.918050   0.365006
    B  -2.632612  -0.795121   0.543629
    B  -0.974146  -1.298625   1.059363
    B   1.094903  -1.245575   1.286560
    B   2.703606  -0.706212   0.702150
    B   2.624817   0.941405   0.166697
    B  -0.958902   0.069196  -1.732772
    B   1.055664  -0.762679  -1.672836
    B  -1.761202   0.234118   1.657989
    B  -0.004265   0.325133   1.742763
    B   1.748985   0.429532   1.606995
    H   2.200652   0.761945   2.640479
    H   0.000681   0.538617   2.900578
    H  -2.210100   0.347476   2.743915
    H  -3.535489  -1.456985   0.919625
    H  -3.692520   1.555863   0.607951
    H  -1.135304   2.754396   1.165907
    H   1.060531   2.757356   0.687420
    H   3.529672   1.692284   0.270338
    H   3.658194  -1.208820   1.186237
    H   1.120151  -2.102331   2.085722
    H  -1.023187  -2.292774   1.682617
    H  -1.944582  -2.479628  -1.170538
    H  -3.451669  -0.253937  -1.855942
    H  -2.160620   2.400666  -1.645603
    H  -0.889671   0.037933  -2.898662
    H   1.014211  -1.167671  -2.767689
    H   3.484954  -0.483436  -1.798233
    H   2.130733  -2.861231  -0.557842
    H   0.044581  -2.681084  -0.763821
    H   1.891036   1.823195  -2.084701
    H  -0.062767   2.277198  -1.550447
    C  -0.131888   1.395014  -0.919538
    C   0.113111  -1.619506  -0.501051
