42
19-2
    B  -1.788233   1.633858  -0.980054
    B   1.176537   0.888667  -1.339199
    B   2.348838  -0.430431  -1.109773
    B  -2.342378  -0.010236  -1.198362
    B  -1.176108  -1.325745  -0.914641
    B   1.792342  -1.878580  -0.300910
    B  -1.104741   1.704363   0.759461
    B   0.900205   1.665870   0.608521
    B  -2.701737   0.868628   0.276603
    B  -2.463678  -0.825792   0.317789
    B  -0.904481  -1.323735   1.175487
    B   1.102547  -1.302087   1.339505
    B   2.700628  -0.701876   0.586976
    B   2.462835   0.887059  -0.002772
    B  -0.648625   0.420900  -1.773620
    B   0.653576  -1.045926  -1.489536
    B  -1.738285   0.176868   1.568662
    B  -0.002817   0.352775   1.846993
    B   1.732739   0.418220   1.527862
    H   2.271208   0.767297   2.520262
    H  -0.005006   0.572380   3.005226
    H  -2.279587   0.220378   2.618161
    H  -3.331601  -1.597962   0.535306
    H  -3.741243   1.365145   0.535527
    H  -1.214724   2.749684   1.291258
    H   1.150492   2.766875   0.952158
    H   3.327137   1.689187  -0.083511
    H   3.739159  -1.066949   1.014043
    H   1.210127  -2.076031   2.221049
    H  -1.157848  -2.220959   1.899324
    H  -1.519428  -2.249923  -1.566736
    H  -3.116332  -0.246578  -2.058816
    H  -2.226517   2.541181  -1.592753
    H  -0.612584   0.618648  -2.935824
    H   0.619518  -1.657803  -2.497425
    H   3.125095  -0.527343  -1.994660
    H   2.231634  -2.948058  -0.533454
    H  -0.004506  -2.964906  -0.053443
    H   1.523179   1.503990  -2.286987
    H   0.009613   2.736271  -1.143301
    C  -0.174542   1.757777  -0.720149
    C   0.177593  -1.899102  -0.020247
