42
19-2
    B  -1.789581   1.501571  -0.969859
    B   1.569218   1.063312  -1.240922
    B   2.604782  -0.348670  -1.020369
    B  -2.589808  -0.084585  -1.065545
    B  -1.584834  -1.474348  -0.686914
    B   1.766517  -1.760036  -0.321363
    B  -1.119573   1.662929   0.735624
    B   0.966628   1.603220   0.472112
    B  -2.727425   0.918732   0.365229
    B  -2.634142  -0.794871   0.545592
    B  -0.975863  -1.298448   1.061026
    B   1.094200  -1.245322   1.284777
    B   2.703248  -0.706775   0.701709
    B   2.626118   0.941886   0.168987
    B  -0.959507   0.061569  -1.730814
    B   1.057281  -0.755210  -1.674623
    B  -1.762016   0.234792   1.659265
    B  -0.004898   0.325102   1.742745
    B   1.749015   0.428742   1.607421
    H   2.199932   0.759732   2.640646
    H   0.000318   0.538698   2.900237
    H  -2.210633   0.348860   2.745301
    H  -3.537552  -1.455781   0.922845
    H  -3.690729   1.558619   0.607093
    H  -1.135113   2.753859   1.165005
    H   1.059285   2.756746   0.686543
    H   3.530931   1.692352   0.274900
    H   3.657071  -1.211340   1.186003
    H   1.119345  -2.102902   2.082081
    H  -1.024291  -2.292049   1.684399
    H  -1.946925  -2.480936  -1.165938
    H  -3.453732  -0.254290  -1.854238
    H  -2.157487   2.396494  -1.648112
    H  -0.892540   0.027887  -2.896526
    H   1.017407  -1.157797  -2.769252
    H   3.487805  -0.482087  -1.797047
    H   2.128262  -2.858100  -0.563636
    H   0.043847  -2.678043  -0.767052
    H   1.896500   1.829062  -2.081962
    H  -0.062834   2.270099  -1.557016
    C  -0.129233   1.389330  -0.922934
    C   0.111008  -1.616003  -0.501418
