42
19-2
    B  -1.780935   1.480896  -0.980659
    B   1.614702   1.103536  -1.233917
    B   2.620395  -0.325641  -1.012336
    B  -2.610010  -0.098176  -1.054251
    B  -1.606389  -1.492787  -0.677486
    B   1.755473  -1.732919  -0.347990
    B  -1.123980   1.658863   0.731062
    B   0.983140   1.608995   0.474745
    B  -2.726090   0.917824   0.368797
    B  -2.641091  -0.799482   0.557588
    B  -0.977083  -1.293879   1.064656
    B   1.077797  -1.242797   1.275677
    B   2.697966  -0.708821   0.707520
    B   2.643712   0.949170   0.191328
    B  -0.979882  -0.000132  -1.738689
    B   1.048472  -0.682576  -1.675683
    B  -1.763093   0.237185   1.667194
    B  -0.002273   0.321827   1.725721
    B   1.749345   0.432793   1.618775
    H   2.201071   0.755841   2.681609
    H   0.000031   0.541129   2.891453
    H  -2.201846   0.349721   2.755492
    H  -3.538128  -1.447083   0.941663
    H  -3.680524   1.573475   0.608940
    H  -1.125580   2.763779   1.151858
    H   1.078746   2.772377   0.694055
    H   3.552546   1.697457   0.313300
    H   3.632891  -1.232371   1.183523
    H   1.097501  -2.122654   2.074137
    H  -1.012309  -2.298136   1.690474
    H  -1.967905  -2.547172  -1.152634
    H  -3.482573  -0.265896  -1.823083
    H  -2.134548   2.361789  -1.667317
    H  -0.959679  -0.055569  -2.896698
    H   1.005498  -1.079514  -2.791517
    H   3.498874  -0.469134  -1.774877
    H   2.105831  -2.838023  -0.608604
    H   0.031848  -2.626185  -0.783290
    H   1.956427   1.870040  -2.045598
    H  -0.030473   2.199183  -1.620683
    C  -0.094100   1.360750  -0.972316
    C   0.086225  -1.591682  -0.507938
