42
19-4
    B  -1.724565   1.124844  -1.117822
    B   0.005139   1.389331  -1.154866
    B   1.765289   1.280503  -0.968533
    B   2.723529  -0.204299  -0.916057
    B  -1.166502  -1.576546  -0.119866
    B   1.795694  -1.663841  -0.939315
    B  -1.112906   1.805747   0.496732
    B   0.926621   1.615291   0.577049
    B  -2.682786   0.845145   0.307786
    B  -2.340935  -0.764882   0.937287
    B  -0.696217  -0.788545   1.691436
    B   0.671482  -1.683469   0.540322
    B   2.353245  -1.048724   0.612297
    B   2.526355   0.705756   0.507085
    B  -0.910285  -0.325721  -1.730218
    B   1.126835  -0.178724  -1.866127
    B  -1.809852   0.668879   1.780653
    B  -0.153723   0.958857   1.897831
    B   1.225748  -0.020784   1.522904
    H   1.563032  -0.175455   2.654303
    H   0.016042   1.552642   2.903972
    H  -2.389289   1.012019   2.750742
    H  -3.198075  -1.486205   1.302294
    H  -3.774054   1.284667   0.296445
    H  -1.292420   2.968343   0.611301
    H   1.190282   2.700684   0.968513
    H   3.407599   1.282860   1.043402
    H   3.131724  -1.700413   1.219528
    H   0.562902  -2.790694   0.938395
    H  -0.628749  -1.517593   2.614939
    H  -1.564885  -2.681866  -0.219686
    H  -3.149998  -0.801962  -1.268296
    H  -2.334563   1.696123  -1.949298
    H  -1.237873  -0.569779  -2.833110
    H   1.157541  -0.240291  -3.042544
    H   3.754844  -0.253743  -1.489340
    H   2.198450  -2.656313  -1.433315
    H  -0.008423  -2.343583  -1.800018
    H   2.252228   2.173146  -1.566164
    H  -0.037135   2.307140  -1.901232
    C  -2.319196  -0.407354  -0.691691
    C   0.175850  -1.485187  -1.167716
