42
19-3
    B  -0.000517   1.373001  -1.216645
    B   2.685915  -0.212873  -0.978259
    B  -2.685500  -0.216328  -0.979004
    B  -1.758582  -1.622145  -0.529530
    B   0.000961  -1.569329  -0.541246
    B   1.760464  -1.619864  -0.529561
    B  -1.017300   1.601017   0.577950
    B   1.015906   1.602466   0.578462
    B  -2.684049   0.942100   0.349180
    B  -2.718815  -0.761852   0.664598
    B  -1.055689  -1.295693   1.131102
    B   1.056912  -1.294549   1.131233
    B   2.719659  -0.758981   0.665034
    B   2.683392   0.944802   0.350089
    B  -1.018361  -0.355129  -1.666745
    B   1.019100  -0.354211  -1.666493
    B  -1.759459   0.303187   1.681178
    B  -0.000395   0.323934   1.623321
    B   1.758612   0.304947   1.681679
    H   2.184885   0.532836   2.758389
    H  -0.000536   0.644276   2.763232
    H  -2.185890   0.531480   2.757721
    H  -3.656261  -1.302822   1.136191
    H  -3.548523   1.737483   0.444916
    H  -1.141220   2.743317   0.832226
    H   1.138518   2.744742   0.833333
    H   3.545666   1.742584   0.445771
    H   3.656948  -1.299762   1.137124
    H   1.089559  -2.180953   1.903940
    H  -1.087846  -2.181899   1.904081
    H  -2.185299  -2.657000  -0.903599
    H  -3.549839  -0.202992  -1.780158
    H  -2.017841   1.873633  -1.633007
    H  -1.144176  -0.454617  -2.832706
    H   1.145340  -0.453225  -2.832433
    H   3.549940  -0.199228  -1.779766
    H   2.188229  -2.654288  -0.903575
    H   0.001204  -2.655273  -1.012456
    H   2.016707   1.876523  -1.631921
    H  -0.000942   2.257492  -1.998212
    C  -1.638084   1.111886  -0.969563
    C   1.637209   1.114309  -0.968871
