42
19-2
    B  -1.787178   1.636571  -0.980771
    B   1.173209   0.880548  -1.345517
    B   2.352422  -0.430739  -1.109706
    B  -2.338883  -0.009158  -1.197509
    B  -1.179716  -1.328700  -0.909504
    B   1.797327  -1.879683  -0.300321
    B  -1.108149   1.705450   0.761628
    B   0.897045   1.666773   0.610510
    B  -2.700800   0.868566   0.276438
    B  -2.465334  -0.826178   0.317438
    B  -0.905489  -1.323528   1.176025
    B   1.102991  -1.302317   1.338995
    B   2.703698  -0.700944   0.587092
    B   2.461484   0.888025  -0.005779
    B  -0.647579   0.424794  -1.773905
    B   0.654326  -1.047677  -1.489484
    B  -1.738991   0.175472   1.571160
    B  -0.004766   0.351945   1.854945
    B   1.727434   0.416823   1.523865
    H   2.269233   0.767484   2.514374
    H  -0.007559   0.571888   3.012884
    H  -2.282971   0.214951   2.619397
    H  -3.337267  -1.593328   0.537024
    H  -3.740404   1.365488   0.534380
    H  -1.214045   2.750179   1.295238
    H   1.150337   2.767048   0.953626
    H   3.320840   1.695000  -0.088400
    H   3.742907  -1.060749   1.016539
    H   1.207915  -2.082101   2.215684
    H  -1.154182  -2.222431   1.898923
    H  -1.523209  -2.251040  -1.563935
    H  -3.109617  -0.246032  -2.060888
    H  -2.223307   2.544140  -1.595047
    H  -0.612244   0.622823  -2.936276
    H   0.620923  -1.658762  -2.497467
    H   3.126150  -0.526700  -1.997225
    H   2.231526  -2.952238  -0.527566
    H  -0.001760  -2.960195  -0.057349
    H   1.520854   1.494900  -2.293660
    H   0.017479   2.736247  -1.141050
    C  -0.174017   1.758570  -0.719346
    C   0.179367  -1.895184  -0.021459
