42
19-4
    B  -1.717388   1.126146  -1.107936
    B   0.006507   1.381135  -1.200278
    B   1.750450   1.282304  -0.953723
    B   2.713397  -0.186727  -0.920847
    B  -1.166746  -1.594609  -0.102192
    B   1.801314  -1.658767  -0.942194
    B  -1.107260   1.826555   0.493925
    B   0.896404   1.645478   0.556405
    B  -2.682361   0.853962   0.319602
    B  -2.328454  -0.748648   0.936905
    B  -0.661628  -0.775167   1.684337
    B   0.687637  -1.724095   0.519297
    B   2.371570  -1.036868   0.590263
    B   2.475107   0.687649   0.532029
    B  -0.891260  -0.319357  -1.715266
    B   1.137182  -0.191306  -1.867785
    B  -1.798096   0.675567   1.796855
    B  -0.154461   1.024808   1.851592
    B   1.167630  -0.142413   1.556377
    H   1.544557  -0.271792   2.672922
    H   0.064187   1.580439   2.870923
    H  -2.372119   0.976570   2.784343
    H  -3.177106  -1.467101   1.327500
    H  -3.770435   1.305447   0.303126
    H  -1.287281   2.988724   0.599063
    H   1.188835   2.731165   0.928824
    H   3.325288   1.274421   1.104180
    H   3.167023  -1.670476   1.190353
    H   0.592864  -2.831428   0.915918
    H  -0.692290  -1.482517   2.630253
    H  -1.594629  -2.688028  -0.218293
    H  -3.138452  -0.795430  -1.267209
    H  -2.338816   1.700767  -1.929032
    H  -1.221555  -0.558299  -2.822013
    H   1.171049  -0.250309  -3.044775
    H   3.749328  -0.213602  -1.488095
    H   2.219055  -2.643153  -1.439921
    H   0.000309  -2.362749  -1.795472
    H   2.256120   2.173352  -1.541486
    H  -0.047157   2.286675  -1.958007
    C  -2.317419  -0.399201  -0.686792
    C   0.177101  -1.503124  -1.163675
