42
19-4
    B  -1.717106   1.126221  -1.108164
    B   0.006434   1.381180  -1.201671
    B   1.749645   1.281783  -0.952859
    B   2.712623  -0.186517  -0.919759
    B  -1.166255  -1.594622  -0.103251
    B   1.802101  -1.658612  -0.942910
    B  -1.106418   1.826739   0.493649
    B   0.894140   1.648103   0.555266
    B  -2.681153   0.854237   0.319879
    B  -2.326608  -0.748357   0.937729
    B  -0.659763  -0.774440   1.684424
    B   0.686393  -1.725724   0.518143
    B   2.370424  -1.036874   0.590819
    B   2.472585   0.686998   0.533167
    B  -0.891510  -0.319483  -1.715670
    B   1.136674  -0.191291  -1.867167
    B  -1.796981   0.675931   1.797564
    B  -0.153503   1.025110   1.851841
    B   1.164670  -0.145898   1.556261
    H   1.542763  -0.275121   2.672531
    H   0.066975   1.582114   2.870033
    H  -2.371378   0.977299   2.784724
    H  -3.175845  -1.466227   1.328144
    H  -3.769024   1.306200   0.303172
    H  -1.287789   2.988708   0.599119
    H   1.187879   2.733550   0.927095
    H   3.321986   1.273707   1.106551
    H   3.167649  -1.668798   1.190353
    H   0.591859  -2.832838   0.915360
    H  -0.689981  -1.482876   2.629520
    H  -1.595338  -2.687758  -0.217647
    H  -3.138331  -0.795762  -1.265814
    H  -2.339310   1.700423  -1.928965
    H  -1.221643  -0.557519  -2.822659
    H   1.171705  -0.250128  -3.044169
    H   3.749145  -0.212718  -1.485982
    H   2.220179  -2.642355  -1.441535
    H   0.000974  -2.363745  -1.795621
    H   2.256242   2.172267  -1.540810
    H  -0.047474   2.286077  -1.960123
    C  -2.316670  -0.399120  -0.686593
    C   0.177034  -1.503868  -1.163973
