42
19-2
    B  -1.748110   1.403846  -0.998168
    B   1.707984   1.190717  -1.221145
    B   2.669127  -0.277080  -1.015160
    B  -2.634911  -0.139521  -1.018985
    B  -1.652121  -1.537769  -0.602266
    B   1.731985  -1.674191  -0.434963
    B  -1.139357   1.648828   0.737793
    B   1.010702   1.605653   0.467155
    B  -2.720696   0.932502   0.364106
    B  -2.678052  -0.796663   0.607084
    B  -1.037859  -1.293663   1.135667
    B   1.064300  -1.247291   1.235460
    B   2.695596  -0.733510   0.678539
    B   2.680343   0.950453   0.237022
    B  -0.968725  -0.156438  -1.677891
    B   1.069884  -0.499090  -1.727356
    B  -1.799624   0.264155   1.701681
    B  -0.034610   0.329775   1.743003
    B   1.759034   0.400865   1.622827
    H   2.191563   0.688464   2.673628
    H  -0.023268   0.550585   2.899012
    H  -2.242970   0.408512   2.785411
    H  -3.591966  -1.433647   1.010805
    H  -3.657391   1.624050   0.568591
    H  -1.155049   2.755818   1.126991
    H   1.074920   2.760932   0.679272
    H   3.588455   1.683990   0.412227
    H   3.619235  -1.305692   1.154643
    H   1.083065  -2.146527   1.983804
    H  -1.070743  -2.275139   1.778846
    H  -2.002522  -2.569955  -1.025738
    H  -3.509537  -0.300940  -1.799848
    H  -2.085440   2.270065  -1.727727
    H  -0.964091  -0.271252  -2.855075
    H   1.056322  -0.822621  -2.854424
    H   3.561285  -0.445837  -1.777561
    H   2.055561  -2.765361  -0.739264
    H   0.028756  -2.582905  -0.837332
    H   2.063042   2.009559  -1.997784
    H  -0.024458   2.094755  -1.736118
    C  -0.018486   1.259286  -1.044573
    C   0.048830  -1.551719  -0.508187
