42
19-2
    B  -1.759471   1.611281  -1.002871
    B   1.175750   0.887143  -1.331155
    B   2.346948  -0.421540  -1.116214
    B  -2.308900  -0.022921  -1.222594
    B  -1.228782  -1.392502  -0.780108
    B   1.795686  -1.838717  -0.308098
    B  -1.112191   1.721277   0.764792
    B   0.885933   1.666917   0.622469
    B  -2.693240   0.869872   0.256840
    B  -2.488711  -0.811308   0.339511
    B  -0.909235  -1.317301   1.144497
    B   1.114577  -1.309595   1.317151
    B   2.706496  -0.685033   0.593806
    B   2.461455   0.898778  -0.005586
    B  -0.624545   0.411895  -1.768229
    B   0.644778  -1.043231  -1.489542
    B  -1.757024   0.205519   1.580094
    B  -0.002177   0.285534   1.811535
    B   1.746223   0.429941   1.535215
    H   2.256843   0.784528   2.538905
    H  -0.001406   0.469559   2.975635
    H  -2.267175   0.269461   2.641929
    H  -3.390631  -1.550282   0.534572
    H  -3.735490   1.372426   0.496012
    H  -1.228621   2.763091   1.299053
    H   1.131489   2.760647   0.990874
    H   3.323250   1.702969  -0.091564
    H   3.747583  -1.061204   1.004524
    H   1.218967  -2.097971   2.183184
    H  -1.135338  -2.215974   1.872056
    H  -1.616261  -2.300738  -1.432621
    H  -3.084540  -0.255707  -2.081477
    H  -2.206898   2.499058  -1.639246
    H  -0.574551   0.616535  -2.930310
    H   0.558145  -1.609772  -2.518317
    H   3.122513  -0.505772  -2.002889
    H   2.265551  -2.896122  -0.542474
    H   0.017782  -2.981680  -0.075923
    H   1.543836   1.496052  -2.276510
    H   0.038809   2.742313  -1.132327
    C  -0.166062   1.770981  -0.707787
    C   0.188638  -1.912411  -0.042815
