42
19-4
    B  -1.716358   1.178005  -1.120775
    B   0.025081   1.370802  -1.139284
    B   1.771356   1.297579  -1.049947
    B   2.724093  -0.188825  -0.991515
    B  -1.512242  -1.616434  -0.274717
    B   1.751828  -1.599632  -0.726802
    B  -1.072070   1.667369   0.535615
    B   1.027606   1.595053   0.596050
    B  -2.698422   0.922217   0.282538
    B  -2.612277  -0.763965   0.788897
    B  -1.093375  -1.135977   1.526952
    B   0.852805  -1.328014   0.908997
    B   2.605904  -0.852724   0.629542
    B   2.696523   0.880342   0.371643
    B  -0.940577  -0.350565  -1.651366
    B   1.097472  -0.209740  -1.798832
    B  -1.814202   0.499153   1.726275
    B  -0.079138   0.433122   1.693513
    B   1.691292   0.206673   1.629653
    H   2.093605   0.282383   2.736160
    H   0.013041   0.718008   2.837511
    H  -2.283258   0.838566   2.754766
    H  -3.567757  -1.381355   1.099551
    H  -3.726639   1.495791   0.316493
    H  -1.165305   2.809171   0.809231
    H   1.101865   2.688886   1.029515
    H   3.617425   1.552906   0.679714
    H   3.448728  -1.520909   1.119240
    H   0.795316  -2.389656   1.422202
    H  -1.146336  -1.917202   2.405249
    H  -1.907995  -2.676547  -0.606972
    H  -3.280035  -0.550745  -1.474200
    H  -2.266201   1.824736  -1.938625
    H  -1.163846  -0.693191  -2.756177
    H   1.082894  -0.386815  -2.962193
    H   3.665811  -0.337818  -1.690559
    H   2.100379  -2.659813  -1.110471
    H   0.062324  -2.392890  -1.335848
    H   2.205219   2.149595  -1.742342
    H  -0.042590   2.292584  -1.875330
    C  -2.458610  -0.313672  -0.813687
    C   0.114667  -1.430451  -0.839666
