42
19-2
    B  -1.761812   1.487361  -0.957551
    B   1.600340   1.078349  -1.244223
    B   2.620499  -0.316432  -0.989520
    B  -2.611733  -0.087700  -1.053902
    B  -1.598397  -1.476152  -0.704103
    B   1.747476  -1.717789  -0.325521
    B  -1.106746   1.669256   0.766236
    B   0.949738   1.583933   0.447346
    B  -2.701772   0.910544   0.375630
    B  -2.641153  -0.795383   0.552945
    B  -0.953488  -1.313239   1.045533
    B   1.068510  -1.228655   1.282856
    B   2.708719  -0.697125   0.717908
    B   2.636374   0.961967   0.198304
    B  -0.993242  -0.007405  -1.729073
    B   1.047206  -0.705867  -1.644281
    B  -1.757251   0.223501   1.669915
    B  -0.006694   0.317360   1.722690
    B   1.737810   0.437492   1.604220
    H   2.178932   0.767397   2.654575
    H  -0.000083   0.529684   2.885312
    H  -2.188110   0.318865   2.763728
    H  -3.548258  -1.438977   0.936964
    H  -3.651383   1.576870   0.611078
    H  -1.072409   2.760956   1.203329
    H   1.024094   2.754098   0.617788
    H   3.539158   1.713087   0.323718
    H   3.656222  -1.215013   1.186685
    H   1.081750  -2.098225   2.079065
    H  -0.985801  -2.318747   1.658787
    H  -1.965750  -2.502126  -1.184718
    H  -3.493984  -0.241977  -1.819580
    H  -2.102056   2.375440  -1.648009
    H  -0.989656  -0.027637  -2.899653
    H   1.004656  -1.108427  -2.751162
    H   3.508291  -0.447046  -1.752435
    H   2.083811  -2.823399  -0.581321
    H   0.032477  -2.630629  -0.799233
    H   1.927910   1.853096  -2.064145
    H  -0.026900   2.164522  -1.648488
    C  -0.089200   1.317976  -0.990929
    C   0.091906  -1.597807  -0.512764
