42
19-2
    B  -1.789204   1.633736  -0.980529
    B   1.177672   0.891168  -1.337548
    B   2.348086  -0.430818  -1.109455
    B  -2.343472  -0.010524  -1.197735
    B  -1.174606  -1.324223  -0.914953
    B   1.791669  -1.878719  -0.301670
    B  -1.104899   1.704277   0.760293
    B   0.900038   1.664936   0.607161
    B  -2.701660   0.867968   0.277006
    B  -2.463162  -0.826056   0.317669
    B  -0.903813  -1.322992   1.175515
    B   1.102068  -1.301579   1.339407
    B   2.699784  -0.702054   0.586930
    B   2.462476   0.886997  -0.002397
    B  -0.648683   0.421726  -1.773882
    B   0.653819  -1.046678  -1.490633
    B  -1.738043   0.176298   1.568793
    B  -0.002962   0.353419   1.846984
    B   1.733196   0.418025   1.528378
    H   2.270806   0.767249   2.521014
    H  -0.004593   0.574529   3.004842
    H  -2.278967   0.219132   2.618509
    H  -3.329330  -1.600260   0.535156
    H  -3.741036   1.364771   0.536141
    H  -1.214493   2.750102   1.291177
    H   1.152013   2.766200   0.949106
    H   3.327621   1.688235  -0.082866
    H   3.737921  -1.067752   1.014564
    H   1.208940  -2.076093   2.220436
    H  -1.156629  -2.220418   1.899191
    H  -1.519128  -2.247482  -1.567700
    H  -3.116156  -0.247885  -2.059036
    H  -2.227295   2.541684  -1.592419
    H  -0.611342   0.617589  -2.936403
    H   0.619410  -1.658728  -2.498315
    H   3.123738  -0.528598  -1.994861
    H   2.231433  -2.948135  -0.533537
    H  -0.006372  -2.965509  -0.050700
    H   1.524477   1.507587  -2.284593
    H   0.008708   2.736673  -1.143685
    C  -0.175218   1.757931  -0.721260
    C   0.177187  -1.899729  -0.020096
