42
19-2
    B  -1.690181   1.278174  -1.087582
    B   1.699155   1.268196  -1.111541
    B   2.656998  -0.205977  -1.012126
    B  -2.642370  -0.198855  -1.008408
    B  -1.717940  -1.604684  -0.525247
    B   1.713151  -1.603593  -0.539936
    B  -1.057450   1.628453   0.621075
    B   1.031505   1.613359   0.583617
    B  -2.685343   0.947227   0.309947
    B  -2.687553  -0.761467   0.645549
    B  -1.047067  -1.271997   1.168039
    B   1.043609  -1.272726   1.157811
    B   2.682419  -0.761846   0.641135
    B   2.677278   0.947228   0.301579
    B  -0.999979  -0.332405  -1.658545
    B   1.050908  -0.347635  -1.707761
    B  -1.767386   0.323481   1.666835
    B  -0.003454   0.348972   1.734162
    B   1.754684   0.326922   1.651885
    H   2.187740   0.539590   2.727499
    H   0.003509   0.574503   2.890283
    H  -2.208013   0.523570   2.742937
    H  -3.604123  -1.353269   1.099503
    H  -3.603374   1.668224   0.490985
    H  -1.078891   2.763480   0.918977
    H   1.055475   2.753125   0.864273
    H   3.592312   1.669214   0.491466
    H   3.597066  -1.353913   1.098246
    H   1.072019  -2.219452   1.850811
    H  -1.079286  -2.212495   1.869922
    H  -2.033173  -2.675277  -0.906917
    H  -3.518955  -0.334155  -1.788753
    H  -2.043785   2.108995  -1.850085
    H  -1.005597  -0.549739  -2.809705
    H   1.038154  -0.574445  -2.855286
    H   3.542413  -0.345783  -1.782339
    H   2.032999  -2.679606  -0.905256
    H  -0.008856  -2.523029  -0.844669
    H   2.048807   2.112928  -1.860552
    H  -0.000048   2.060148  -1.726831
    C   0.003964   1.226182  -1.034273
    C  -0.001345  -1.493623  -0.506722
