42
19-3
    B  -0.001227   1.380781  -1.224193
    B   2.681637  -0.215257  -0.981075
    B  -2.681146  -0.213203  -0.980947
    B  -1.760868  -1.626577  -0.533212
    B  -0.000655  -1.556884  -0.536188
    B   1.761704  -1.627050  -0.528038
    B  -1.024767   1.603471   0.584020
    B   1.021292   1.605774   0.583154
    B  -2.686627   0.935110   0.351954
    B  -2.720209  -0.764423   0.661553
    B  -1.059445  -1.298203   1.131960
    B   1.059181  -1.294230   1.133497
    B   2.719322  -0.761114   0.664447
    B   2.684079   0.943906   0.349580
    B  -1.015297  -0.357394  -1.668175
    B   1.015305  -0.358301  -1.667255
    B  -1.760370   0.299440   1.683732
    B  -0.000832   0.329449   1.629983
    B   1.761364   0.304777   1.681884
    H   2.188300   0.530569   2.759009
    H   0.001531   0.663140   2.766498
    H  -2.187345   0.517295   2.762098
    H  -3.658022  -1.306708   1.130843
    H  -3.545269   1.738515   0.435664
    H  -1.143496   2.746051   0.837888
    H   1.134421   2.750370   0.830589
    H   3.550607   1.738260   0.434574
    H   3.660906  -1.297216   1.133459
    H   1.096723  -2.178782   1.907975
    H  -1.093873  -2.185412   1.903293
    H  -2.183812  -2.661793  -0.910336
    H  -3.542840  -0.196158  -1.784908
    H  -2.020481   1.872979  -1.627981
    H  -1.144645  -0.455600  -2.833833
    H   1.143659  -0.461047  -2.832614
    H   3.547051  -0.198070  -1.780880
    H   2.187787  -2.661809  -0.903125
    H   0.002244  -2.644052  -1.006498
    H   2.015995   1.868113  -1.628508
    H   0.000255   2.268997  -2.001885
    C  -1.629667   1.114834  -0.966440
    C   1.627529   1.110453  -0.964563
