42
19-0
    B  -1.727814   1.280913  -1.105294
    B   0.016277   1.280294  -1.121940
    B   1.765624   1.264700  -1.093654
    B   2.699340  -0.200101  -0.994368
    B  -2.662956  -0.198312  -1.017395
    B  -1.741183  -1.601355  -0.543337
    B   0.010718  -1.626882  -0.551857
    B   1.765924  -1.599732  -0.545230
    B  -0.999732   1.641315   0.532350
    B   1.045770   1.598450   0.561556
    B  -0.988411  -1.286441   1.118691
    B   1.064924  -1.291261   1.134481
    B   2.720707  -0.763731   0.666783
    B   2.718978   0.941464   0.336210
    B  -1.021903  -0.323818  -1.693385
    B   0.997237  -0.326124  -1.660626
    B  -1.701042   0.337561   1.652841
    B   0.021777   0.329122   1.669587
    B   1.775731   0.326588   1.660937
    H   2.163033   0.539273   2.755865
    H  -0.035024   0.561253   2.833243
    H  -2.293926   0.534179   2.651186
    H  -3.416108  -1.126097   1.049292
    H  -3.430187   1.423903   0.527417
    H  -1.275158   2.728195   0.893685
    H   1.024375   2.703265   0.974331
    H   3.616596   1.669982   0.585379
    H   3.621288  -1.340464   1.170491
    H   1.049264  -2.165212   1.926600
    H  -1.175303  -2.134481   1.912738
    H  -2.304010  -2.602098  -0.810565
    H  -3.689313  -0.302257  -1.580441
    H  -2.272668   2.115108  -1.734884
    H  -1.156615  -0.537914  -2.844974
    H   1.056773  -0.545862  -2.820668
    H   3.587472  -0.347171  -1.759885
    H   2.170331  -2.641529  -0.928707
    H  -0.060700  -2.742591  -0.946830
    H   2.169090   2.091346  -1.834739
    H  -0.037108   2.168753  -1.905032
    C  -2.532293  -0.699791   0.599984
    C  -2.538777   0.867561   0.279167
