42
19-2
    B  -1.683977   1.267008  -1.083054
    B   1.686491   1.265324  -1.094594
    B   2.626101  -0.201268  -1.007061
    B  -2.624135  -0.202752  -1.007189
    B  -1.754157  -1.645055  -0.543462
    B   1.708078  -1.623401  -0.539254
    B  -1.054890   1.637307   0.618556
    B   1.033881   1.608686   0.586586
    B  -2.686096   0.943827   0.309515
    B  -2.682808  -0.753781   0.642986
    B  -1.046609  -1.264522   1.154749
    B   1.053496  -1.264946   1.153587
    B   2.676729  -0.759161   0.637465
    B   2.680811   0.939303   0.309020
    B  -0.981708  -0.333018  -1.638396
    B   1.031852  -0.331769  -1.693619
    B  -1.753797   0.318471   1.661770
    B   0.002814   0.334248   1.709346
    B   1.769119   0.339012   1.679617
    H   2.237838   0.543337   2.743067
    H   0.018952   0.575321   2.866157
    H  -2.224206   0.525315   2.724773
    H  -3.604065  -1.337496   1.098245
    H  -3.599941   1.665472   0.505678
    H  -1.086913   2.776388   0.904189
    H   1.059132   2.750346   0.868717
    H   3.594251   1.664882   0.493796
    H   3.590921  -1.342130   1.106539
    H   1.100067  -2.206219   1.853461
    H  -1.088898  -2.208243   1.851514
    H  -2.067676  -2.716123  -0.926031
    H  -3.496330  -0.339271  -1.793474
    H  -2.025377   2.100151  -1.846513
    H  -0.980693  -0.565456  -2.787215
    H   1.035272  -0.565337  -2.841988
    H   3.504341  -0.342614  -1.785589
    H   2.038509  -2.693052  -0.912678
    H  -0.020234  -2.500579  -0.852663
    H   2.027515   2.107985  -1.847577
    H   0.000062   2.069999  -1.737667
    C   0.002256   1.244026  -1.041072
    C  -0.015976  -1.474216  -0.496239
