42
19-2
    B  -1.845185   1.676647  -0.946898
    B   1.204270   0.877621  -1.306612
    B   2.417547  -0.445867  -1.091269
    B  -2.365919  -0.000982  -1.191134
    B  -1.332632  -1.401472  -0.763172
    B   1.819130  -1.913449  -0.101488
    B  -1.103054   1.694278   0.759732
    B   0.937522   1.662081   0.537812
    B  -2.723752   0.885789   0.315852
    B  -2.522570  -0.809022   0.399478
    B  -0.926947  -1.341470   1.038636
    B   1.140763  -1.239706   1.391258
    B   2.707708  -0.653801   0.652167
    B   2.489219   0.916941  -0.024647
    B  -0.791710   0.479143  -1.805070
    B   0.892191  -1.125182  -1.586709
    B  -1.749029   0.192396   1.597570
    B   0.005485   0.273882   1.797479
    B   1.754168   0.484481   1.564865
    H   2.260988   0.895951   2.560893
    H  -0.016568   0.463982   2.965062
    H  -2.260005   0.259589   2.660201
    H  -3.432066  -1.516235   0.649201
    H  -3.757700   1.389089   0.589055
    H  -1.157472   2.736856   1.314182
    H   1.197228   2.781953   0.824827
    H   3.383044   1.686726  -0.083781
    H   3.742257  -1.038781   1.065544
    H   1.181049  -2.032995   2.271201
    H  -1.106553  -2.319849   1.677465
    H  -1.778531  -2.317726  -1.398798
    H  -3.178252  -0.240816  -2.013338
    H  -2.273868   2.607103  -1.530170
    H  -0.596225   0.580238  -2.956644
    H   0.755095  -1.596619  -2.662696
    H   3.247499  -0.460040  -1.931179
    H   2.301666  -2.984930  -0.230133
    H  -0.004459  -3.041863  -0.406806
    H   1.499421   1.505832  -2.260043
    H   0.028446   2.696977  -1.201148
    C  -0.204516   1.718534  -0.767933
    C   0.162314  -1.979284  -0.368816
