42
19-4
    B  -1.717170   1.126461  -1.108281
    B   0.006510   1.381263  -1.201611
    B   1.749521   1.281335  -0.953016
    B   2.712846  -0.186567  -0.919714
    B  -1.166954  -1.594265  -0.104228
    B   1.803070  -1.658687  -0.942967
    B  -1.105764   1.826580   0.493820
    B   0.893167   1.649392   0.554363
    B  -2.680693   0.854856   0.319722
    B  -2.326937  -0.748265   0.938170
    B  -0.661218  -0.774652   1.684614
    B   0.686811  -1.726327   0.517653
    B   2.370873  -1.036540   0.591126
    B   2.472053   0.687137   0.533169
    B  -0.891803  -0.319605  -1.715253
    B   1.136529  -0.191260  -1.866898
    B  -1.796758   0.675820   1.797791
    B  -0.153035   1.023215   1.852651
    B   1.164689  -0.146781   1.556168
    H   1.543078  -0.275789   2.672417
    H   0.068255   1.581460   2.869973
    H  -2.371579   0.977612   2.784601
    H  -3.177105  -1.465548   1.327604
    H  -3.768232   1.307448   0.302969
    H  -1.288101   2.988340   0.600161
    H   1.187410   2.734681   0.926153
    H   3.321180   1.274066   1.106839
    H   3.169669  -1.667219   1.190008
    H   0.591144  -2.832867   0.916148
    H  -0.690329  -1.484253   2.628830
    H  -1.595871  -2.687475  -0.217841
    H  -3.138724  -0.795608  -1.265750
    H  -2.339826   1.700384  -1.928935
    H  -1.221617  -0.557461  -2.822284
    H   1.171949  -0.249893  -3.043853
    H   3.749367  -0.212471  -1.485895
    H   2.220805  -2.642587  -1.441552
    H   0.001845  -2.363842  -1.794772
    H   2.256203   2.171241  -1.541802
    H  -0.048003   2.285772  -1.960548
    C  -2.316667  -0.399062  -0.686929
    C   0.177410  -1.504038  -1.162821
