42
19-5
    B  -1.740000   1.258000  -1.100000
    B  -0.041317   1.389354  -1.224667
    B   1.756000   1.274000  -1.117000
    B   2.695000  -0.186000  -1.000000
    B  -1.768120  -1.704150  -0.577378
    B  -0.050226  -1.611130  -0.630924
    B   1.742000  -1.583000  -0.545000
    B  -1.006880   1.739150   0.599378
    B   1.033000   1.625000   0.549000
    B  -2.688000   0.953000   0.340000
    B  -2.695000  -0.759000   0.677000
    B  -1.051000  -1.292000   1.135000
    B   1.104543  -1.378224   1.298591
    B   2.688000   0.962000   0.314000
    B  -1.010000  -0.327000  -1.663000
    B   1.006580  -0.368841  -1.903619
    B  -1.756000   0.325000   1.663000
    B  -0.003000   0.322000   1.671000
    B   1.784420   0.363841   1.854619
    H   2.292420   0.502841   2.907619
    H   0.028000   0.559000   2.831000
    H  -2.185000   0.542000   2.741000
    H  -3.667000  -1.314000   1.044000
    H  -3.659000   1.608000   0.469000
    H  -1.080880   2.856150   0.967378
    H   1.107000   2.733000   0.942000
    H   3.659000   1.559000   0.612000
    H   3.394000  -1.201000   1.043000
    H   1.260543  -2.261224   2.059591
    H  -1.076000  -2.192000   1.895000
    H  -2.258120  -2.692150  -0.991378
    H  -3.394000  -0.312000  -1.560000
    H  -2.248000   2.012000  -1.849000
    H  -1.166000  -0.560000  -2.806000
    H   1.031580  -0.616841  -3.054619
    H   3.667000  -0.400000  -1.630000
    H   2.233000  -2.618000  -0.823000
    H  -0.050226  -2.732130  -1.013924
    H   2.185000   2.106000  -1.837000
    H  -0.072317   2.286354  -1.995667
    C  -2.560000  -0.179000  -0.886000
    C   2.560000  -0.684000   0.591000
