42
19-4
    B  -1.730124   1.152211  -1.143048
    B   0.015217   1.377159  -1.138717
    B   1.781932   1.303798  -1.013557
    B   2.742008  -0.175008  -0.989441
    B  -1.356288  -1.578775  -0.144128
    B   1.788801  -1.628581  -0.856150
    B  -1.094254   1.741995   0.507152
    B   0.968826   1.565926   0.621772
    B  -2.700431   0.910502   0.272428
    B  -2.537419  -0.753995   0.856015
    B  -1.007442  -0.957447   1.653832
    B   0.836946  -1.549346   0.715411
    B   2.537867  -0.945095   0.580015
    B   2.638111   0.804258   0.423079
    B  -0.914388  -0.356239  -1.652470
    B   1.106484  -0.181384  -1.828819
    B  -1.835212   0.605096   1.749327
    B  -0.135281   0.678064   1.832615
    B   1.506291   0.049939   1.554724
    H   1.847459  -0.008715   2.685243
    H  -0.028418   1.130014   2.920047
    H  -2.354363   0.978024   2.741957
    H  -3.456452  -1.419302   1.176901
    H  -3.758321   1.426962   0.272327
    H  -1.223781   2.899048   0.699640
    H   1.116496   2.645466   1.079738
    H   3.547666   1.439927   0.829811
    H   3.365967  -1.602107   1.111659
    H   0.708715  -2.624684   1.183521
    H  -0.970108  -1.708348   2.558623
    H  -1.716298  -2.676642  -0.375261
    H  -3.219017  -0.672995  -1.401730
    H  -2.300206   1.748869  -1.984664
    H  -1.166176  -0.692390  -2.752740
    H   1.096044  -0.297798  -3.000434
    H   3.714169  -0.266347  -1.654067
    H   2.162429  -2.645448  -1.324586
    H   0.058898  -2.370080  -1.510030
    H   2.231985   2.182601  -1.659138
    H  -0.041219   2.291909  -1.886722
    C  -2.402937  -0.362102  -0.762621
    C   0.173828  -1.452937  -0.947517
