42
19-2
    B  -1.695392   1.361309  -1.007838
    B   1.718826   1.226834  -1.185789
    B   2.657104  -0.244502  -1.000409
    B  -2.621586  -0.142279  -1.012733
    B  -1.673796  -1.563129  -0.582310
    B   1.698575  -1.630759  -0.477406
    B  -1.112176   1.644857   0.746055
    B   0.979862   1.597044   0.475101
    B  -2.686495   0.941572   0.360401
    B  -2.672113  -0.780172   0.618673
    B  -1.040050  -1.291106   1.154474
    B   1.041264  -1.246877   1.203956
    B   2.675833  -0.730582   0.673052
    B   2.668563   0.958414   0.266151
    B  -0.964259  -0.232555  -1.665013
    B   1.047024  -0.424571  -1.713358
    B  -1.781213   0.271070   1.705309
    B  -0.024778   0.322880   1.731499
    B   1.744355   0.397900   1.628253
    H   2.188487   0.668458   2.685578
    H  -0.009980   0.547738   2.889442
    H  -2.223402   0.420799   2.789007
    H  -3.594660  -1.396136   1.026510
    H  -3.608068   1.655574   0.558441
    H  -1.126711   2.756829   1.127944
    H   1.011097   2.757034   0.686610
    H   3.570191   1.696752   0.457770
    H   3.591846  -1.310233   1.144457
    H   1.072234  -2.164899   1.935846
    H  -1.056096  -2.269653   1.804520
    H  -2.016397  -2.611528  -0.994879
    H  -3.497560  -0.289906  -1.791105
    H  -2.017218   2.218526  -1.750562
    H  -1.007580  -0.388577  -2.831903
    H   1.039054  -0.744482  -2.843512
    H   3.550611  -0.422037  -1.753825
    H   2.027595  -2.714319  -0.810096
    H   0.013167  -2.547147  -0.868199
    H   2.069713   2.064266  -1.937628
    H   0.013658   1.984210  -1.825270
    C   0.027877   1.188594  -1.096902
    C   0.022594  -1.529208  -0.516312
