42
19-2
    B  -1.695790   1.283200  -1.084247
    B   1.699639   1.263900  -1.114896
    B   2.656713  -0.205007  -1.008992
    B  -2.644071  -0.196072  -1.006531
    B  -1.707725  -1.599149  -0.528898
    B   1.711450  -1.604081  -0.535649
    B  -1.060094   1.629140   0.623766
    B   1.035575   1.615461   0.581174
    B  -2.686670   0.946812   0.312923
    B  -2.687714  -0.761348   0.645266
    B  -1.052192  -1.274283   1.173088
    B   1.040272  -1.269465   1.157377
    B   2.683649  -0.759643   0.644756
    B   2.679430   0.948943   0.301214
    B  -1.007206  -0.324299  -1.663395
    B   1.053411  -0.353020  -1.707312
    B  -1.768899   0.321832   1.666881
    B  -0.007478   0.346968   1.737304
    B   1.754631   0.327963   1.648135
    H   2.192968   0.545110   2.721784
    H   0.000814   0.570599   2.893897
    H  -2.207353   0.525005   2.743249
    H  -3.602520  -1.357937   1.095062
    H  -3.605239   1.666453   0.497052
    H  -1.086171   2.763934   0.923140
    H   1.070450   2.756816   0.855972
    H   3.594190   1.670495   0.494769
    H   3.597289  -1.349777   1.104880
    H   1.066048  -2.216699   1.850550
    H  -1.075929  -2.216836   1.872497
    H  -2.038662  -2.664803  -0.915970
    H  -3.519195  -0.337885  -1.786792
    H  -2.042465   2.118731  -1.843516
    H  -1.017672  -0.537065  -2.814719
    H   1.052364  -0.581760  -2.855188
    H   3.540739  -0.349035  -1.779186
    H   2.039661  -2.678496  -0.899939
    H  -0.002066  -2.527658  -0.853839
    H   2.041480   2.107945  -1.866842
    H  -0.000794   2.043464  -1.733057
    C   0.001521   1.218842  -1.031734
    C   0.003611  -1.501296  -0.510034
