42
19-3
    B  -0.001333   1.382055  -1.225556
    B   2.680059  -0.214324  -0.982011
    B  -2.679943  -0.211633  -0.982334
    B  -1.760252  -1.625463  -0.532715
    B  -0.001054  -1.551715  -0.533142
    B   1.760457  -1.626755  -0.526588
    B  -1.027475   1.606454   0.581957
    B   1.024789   1.611540   0.581529
    B  -2.688833   0.934763   0.350694
    B  -2.720312  -0.763753   0.661038
    B  -1.060688  -1.298073   1.134070
    B   1.059039  -1.291403   1.135627
    B   2.718457  -0.759362   0.664473
    B   2.684887   0.945926   0.347601
    B  -1.013997  -0.356617  -1.668369
    B   1.013362  -0.357701  -1.666651
    B  -1.760577   0.299814   1.683190
    B  -0.000909   0.329109   1.631325
    B   1.763146   0.306909   1.681600
    H   2.192315   0.533023   2.758060
    H   0.002578   0.615489   2.781780
    H  -2.187622   0.516316   2.761991
    H  -3.657998  -1.306721   1.129779
    H  -3.547125   1.738734   0.432187
    H  -1.149264   2.749048   0.834329
    H   1.140183   2.756615   0.825922
    H   3.553050   1.738808   0.430400
    H   3.660514  -1.295316   1.132824
    H   1.098211  -2.174842   1.911268
    H  -1.097112  -2.184273   1.906324
    H  -2.181227  -2.661369  -0.910316
    H  -3.540561  -0.194694  -1.787421
    H  -2.020729   1.872173  -1.630530
    H  -1.143344  -0.457082  -2.833896
    H   1.141015  -0.464540  -2.831835
    H   3.545350  -0.198915  -1.781985
    H   2.182951  -2.662914  -0.901557
    H   0.003141  -2.640357  -1.000014
    H   2.017780   1.866577  -1.630411
    H   0.000809   2.270723  -2.002776
    C  -1.628551   1.115654  -0.967607
    C   1.626811   1.111093  -0.965251
