42
19-2
    B  -1.711669   1.312518  -1.066200
    B   1.697790   1.243526  -1.133464
    B   2.648896  -0.221455  -1.008268
    B  -2.634221  -0.178946  -1.008726
    B  -1.681118  -1.578933  -0.546709
    B   1.713219  -1.621577  -0.514420
    B  -1.067515   1.629651   0.642813
    B   1.018832   1.610042   0.555557
    B  -2.690706   0.947746   0.326956
    B  -2.679216  -0.765823   0.635127
    B  -1.058318  -1.276869   1.176233
    B   1.042380  -1.268044   1.171559
    B   2.682979  -0.751193   0.656240
    B   2.673959   0.949733   0.286501
    B  -1.001447  -0.272082  -1.672319
    B   1.052295  -0.389214  -1.704997
    B  -1.768091   0.312820   1.672208
    B  -0.010815   0.331943   1.736898
    B   1.750413   0.344597   1.643569
    H   2.196004   0.579833   2.710404
    H   0.001068   0.555384   2.893500
    H  -2.208060   0.513977   2.748565
    H  -3.593664  -1.376448   1.067043
    H  -3.611333   1.660158   0.527378
    H  -1.094989   2.759751   0.959023
    H   1.052501   2.753989   0.819420
    H   3.582272   1.679421   0.478848
    H   3.598348  -1.332016   1.125358
    H   1.075717  -2.204688   1.878908
    H  -1.076083  -2.229774   1.860993
    H  -2.030029  -2.633194  -0.948054
    H  -3.506720  -0.336768  -1.789211
    H  -2.046205   2.163433  -1.813845
    H  -1.011822  -0.469897  -2.827111
    H   1.051677  -0.648138  -2.847053
    H   3.532344  -0.379990  -1.777184
    H   2.060608  -2.693335  -0.868474
    H   0.007752  -2.537251  -0.866003
    H   2.036425   2.081331  -1.894281
    H  -0.005427   2.038227  -1.736585
    C  -0.007455   1.216322  -1.031904
    C   0.019426  -1.512765  -0.514295
