42
19-2
    B  -1.784482   1.491652  -0.974143
    B   1.581430   1.076543  -1.238726
    B   2.610718  -0.340454  -1.018981
    B  -2.594942  -0.089226  -1.060991
    B  -1.594534  -1.482984  -0.680833
    B   1.763451  -1.753810  -0.331413
    B  -1.119011   1.661525   0.734096
    B   0.967586   1.605156   0.472462
    B  -2.725331   0.919705   0.365895
    B  -2.636775  -0.794194   0.552188
    B  -0.978679  -1.297957   1.065574
    B   1.090338  -1.246183   1.279497
    B   2.700380  -0.707099   0.699830
    B   2.629600   0.942503   0.175550
    B  -0.963164   0.041659  -1.728237
    B   1.058799  -0.730091  -1.679727
    B  -1.761755   0.236960   1.661973
    B  -0.004628   0.326436   1.741386
    B   1.747552   0.427273   1.609168
    H   2.198330   0.757057   2.651917
    H   0.001466   0.541414   2.901141
    H  -2.208287   0.353065   2.747817
    H  -3.538983  -1.451112   0.933498
    H  -3.686300   1.564807   0.605702
    H  -1.133086   2.757574   1.159828
    H   1.056021   2.760780   0.690225
    H   3.535655   1.691915   0.288238
    H   3.649394  -1.215773   1.183940
    H   1.114931  -2.112272   2.076431
    H  -1.024012  -2.294099   1.692239
    H  -1.958030  -2.505246  -1.158640
    H  -3.460044  -0.256845  -1.846814
    H  -2.150645   2.381179  -1.655415
    H  -0.903619   0.000441  -2.899817
    H   1.020922  -1.129596  -2.787796
    H   3.493485  -0.476198  -1.791513
    H   2.122929  -2.851716  -0.579265
    H   0.035331  -2.653322  -0.771977
    H   1.910795   1.844846  -2.069362
    H  -0.047089   2.244698  -1.571877
    C  -0.115317   1.377739  -0.936129
    C   0.099597  -1.610748  -0.502941
