42
19-2
    B  -1.757597   1.465703  -0.975701
    B   1.590972   1.101628  -1.246829
    B   2.616311  -0.318159  -1.014857
    B  -2.594313  -0.094552  -1.043777
    B  -1.612216  -1.497661  -0.662700
    B   1.757129  -1.736327  -0.350533
    B  -1.105315   1.657884   0.742329
    B   0.950531   1.602170   0.457688
    B  -2.709668   0.929570   0.376594
    B  -2.645604  -0.786888   0.570577
    B  -0.990733  -1.304061   1.083254
    B   1.070673  -1.253423   1.270926
    B   2.692446  -0.708932   0.703664
    B   2.623318   0.948121   0.191488
    B  -0.957216  -0.003760  -1.712920
    B   1.065111  -0.664729  -1.714901
    B  -1.762340   0.247461   1.677010
    B  -0.012479   0.316661   1.745018
    B   1.735076   0.417359   1.615065
    H   2.184776   0.737680   2.660969
    H  -0.015235   0.532339   2.903867
    H  -2.205683   0.371846   2.762807
    H  -3.556909  -1.431336   0.958900
    H  -3.658705   1.592054   0.615947
    H  -1.109687   2.755010   1.163520
    H   1.028152   2.759348   0.670147
    H   3.526302   1.697564   0.321666
    H   3.638451  -1.223255   1.191243
    H   1.095803  -2.125484   2.058948
    H  -1.036660  -2.298339   1.711095
    H  -1.979308  -2.525924  -1.134348
    H  -3.466101  -0.252946  -1.827046
    H  -2.106543   2.353889  -1.667426
    H  -0.911708  -0.058489  -2.897214
    H   1.047064  -1.042058  -2.838439
    H   3.507949  -0.452994  -1.780094
    H   2.113871  -2.829462  -0.607688
    H   0.060860  -2.654639  -0.786840
    H   1.921628   1.881405  -2.066790
    H  -0.035728   2.186611  -1.632671
    C  -0.086744   1.331409  -0.983320
    C   0.090068  -1.616294  -0.504629
