42
19-4
    B  -1.714728   1.178578  -1.117545
    B   0.026518   1.372316  -1.137525
    B   1.770883   1.296730  -1.050183
    B   2.723988  -0.190324  -0.990244
    B  -1.518624  -1.618280  -0.282367
    B   1.750767  -1.598468  -0.722943
    B  -1.072507   1.665771   0.539309
    B   1.030786   1.596830   0.592493
    B  -2.699570   0.921372   0.284592
    B  -2.612752  -0.766032   0.788249
    B  -1.094677  -1.142085   1.521862
    B   0.849286  -1.318531   0.913088
    B   2.605872  -0.849572   0.632442
    B   2.697608   0.882140   0.369519
    B  -0.941363  -0.347933  -1.651842
    B   1.097931  -0.211741  -1.799533
    B  -1.813238   0.495659   1.726129
    B  -0.077610   0.424599   1.683820
    B   1.697471   0.213808   1.632665
    H   2.101039   0.295668   2.737973
    H   0.015458   0.701780   2.830240
    H  -2.279245   0.831407   2.757127
    H  -3.569764  -1.381441   1.098440
    H  -3.727364   1.496919   0.318419
    H  -1.164004   2.806689   0.816728
    H   1.100878   2.691576   1.022975
    H   3.619503   1.554855   0.672886
    H   3.447620  -1.517728   1.122230
    H   0.795981  -2.378226   1.428445
    H  -1.149555  -1.924246   2.399823
    H  -1.913261  -2.678224  -0.620059
    H  -3.282144  -0.545587  -1.476061
    H  -2.263647   1.829230  -1.933020
    H  -1.164252  -0.689079  -2.757883
    H   1.084089  -0.393469  -2.962411
    H   3.665946  -0.342303  -1.688616
    H   2.098478  -2.661185  -1.100860
    H   0.063457  -2.393011  -1.325820
    H   2.205010   2.147687  -1.744329
    H  -0.043919   2.289987  -1.877994
    C  -2.460637  -0.312387  -0.815420
    C   0.112294  -1.427752  -0.834798
