42
19-2
    B  -1.829685   1.569585  -0.960835
    B   1.469606   0.990148  -1.256148
    B   2.552944  -0.406501  -1.040582
    B  -2.545583  -0.062139  -1.101058
    B  -1.517259  -1.450104  -0.726107
    B   1.778045  -1.832702  -0.249101
    B  -1.115703   1.673704   0.726998
    B   0.949575   1.613695   0.473089
    B  -2.739163   0.903637   0.354845
    B  -2.597280  -0.801678   0.508097
    B  -0.934873  -1.298648   1.038149
    B   1.102223  -1.247999   1.313309
    B   2.697129  -0.699091   0.699597
    B   2.588818   0.921510   0.118415
    B  -0.929979   0.214840  -1.751849
    B   1.038059  -0.898422  -1.664408
    B  -1.743122   0.222720   1.636458
    B   0.009455   0.325376   1.755183
    B   1.748365   0.445599   1.594968
    H   2.216941   0.805246   2.616853
    H   0.009072   0.539573   2.914675
    H  -2.205919   0.326384   2.716769
    H  -3.491856  -1.484348   0.862016
    H  -3.726436   1.499059   0.612778
    H  -1.148341   2.756560   1.185197
    H   1.084218   2.765338   0.699135
    H   3.495515   1.675832   0.183124
    H   3.669177  -1.166127   1.182310
    H   1.122174  -2.081520   2.141559
    H  -1.000266  -2.297148   1.658883
    H  -1.887392  -2.446255  -1.242837
    H  -3.394258  -0.252611  -1.901109
    H  -2.216911   2.476768  -1.604157
    H  -0.794968   0.235017  -2.917546
    H   0.979584  -1.336045  -2.757597
    H   3.422324  -0.519768  -1.832955
    H   2.149340  -2.936128  -0.447778
    H   0.069948  -2.722458  -0.677439
    H   1.775740   1.713669  -2.133914
    H  -0.078848   2.419029  -1.399235
    C  -0.188781   1.511328  -0.838605
    C   0.158373  -1.658924  -0.485148
