42
19-4
    B  -1.716463   1.124570  -1.105628
    B   0.007416   1.383944  -1.191622
    B   1.752104   1.279053  -0.958800
    B   2.715753  -0.189115  -0.925530
    B  -1.165577  -1.594852  -0.097209
    B   1.798514  -1.660708  -0.936178
    B  -1.108147   1.827408   0.493874
    B   0.900149   1.633678   0.561693
    B  -2.686729   0.855525   0.316700
    B  -2.332619  -0.749652   0.938358
    B  -0.662070  -0.774066   1.677879
    B   0.683798  -1.722662   0.513144
    B   2.371048  -1.033466   0.587986
    B   2.479630   0.685542   0.525980
    B  -0.888366  -0.317185  -1.714054
    B   1.139456  -0.191886  -1.870719
    B  -1.799147   0.672907   1.793710
    B  -0.160946   1.022727   1.855152
    B   1.167287  -0.121617   1.556804
    H   1.548803  -0.252697   2.671221
    H   0.058819   1.577356   2.874527
    H  -2.371132   0.969060   2.784119
    H  -3.181473  -1.468761   1.326654
    H  -3.773293   1.308761   0.298532
    H  -1.286918   2.989638   0.599521
    H   1.192126   2.718742   0.937385
    H   3.333467   1.267691   1.098698
    H   3.167263  -1.665552   1.190105
    H   0.583250  -2.825783   0.920473
    H  -0.687842  -1.487294   2.619071
    H  -1.587894  -2.689805  -0.212553
    H  -3.135348  -0.799407  -1.272291
    H  -2.340054   1.698090  -1.926118
    H  -1.222751  -0.550470  -2.820377
    H   1.172531  -0.244196  -3.047511
    H   3.750148  -0.214718  -1.494896
    H   2.216176  -2.651283  -1.422202
    H   0.000893  -2.361235  -1.797555
    H   2.255610   2.168911  -1.549772
    H  -0.050474   2.292576  -1.945737
    C  -2.317069  -0.401954  -0.687705
    C   0.178071  -1.501816  -1.165130
