42
19-4
    B  -1.712787   1.121147  -1.106328
    B   0.004733   1.387014  -1.164074
    B   1.753171   1.270557  -0.959537
    B   2.716124  -0.196074  -0.917745
    B  -1.164221  -1.591844  -0.100471
    B   1.801030  -1.666960  -0.940598
    B  -1.111851   1.816934   0.495810
    B   0.902368   1.629037   0.576898
    B  -2.686928   0.848665   0.310643
    B  -2.334770  -0.750207   0.943335
    B  -0.661074  -0.767311   1.690271
    B   0.686117  -1.727353   0.507559
    B   2.357287  -1.045161   0.595874
    B   2.495752   0.689476   0.520865
    B  -0.894305  -0.324006  -1.727746
    B   1.131849  -0.194007  -1.862581
    B  -1.811781   0.674358   1.791923
    B  -0.163104   1.013027   1.899723
    B   1.184894  -0.063804   1.541149
    H   1.586819  -0.216419   2.648725
    H   0.041660   1.607583   2.899632
    H  -2.396666   0.993640   2.767468
    H  -3.192290  -1.466950   1.317534
    H  -3.776204   1.298805   0.287009
    H  -1.298170   2.978564   0.597898
    H   1.194818   2.712128   0.951011
    H   3.355744   1.264030   1.088773
    H   3.155456  -1.673826   1.194656
    H   0.611024  -2.839457   0.894318
    H  -0.678153  -1.492601   2.624052
    H  -1.610893  -2.682109  -0.187026
    H  -3.129602  -0.808883  -1.259194
    H  -2.328612   1.690840  -1.935414
    H  -1.222055  -0.536189  -2.841241
    H   1.172501  -0.240998  -3.041321
    H   3.752637  -0.217742  -1.485257
    H   2.216214  -2.655174  -1.432508
    H  -0.014847  -2.370393  -1.830703
    H   2.249312   2.161878  -1.555148
    H  -0.041536   2.295398  -1.918159
    C  -2.310319  -0.405611  -0.682959
    C   0.168656  -1.514001  -1.197116
