42
19-2
    B  -1.881960   1.670774  -0.947205
    B   1.293703   0.876769  -1.283507
    B   2.472748  -0.463353  -1.072819
    B  -2.448573  -0.009102  -1.163202
    B  -1.406332  -1.402427  -0.770230
    B   1.819160  -1.915486  -0.114206
    B  -1.101974   1.691921   0.730864
    B   0.950824   1.634498   0.517573
    B  -2.748770   0.887257   0.333669
    B  -2.545591  -0.804086   0.433007
    B  -0.917908  -1.316401   1.007446
    B   1.142026  -1.241943   1.366727
    B   2.716215  -0.669826   0.678530
    B   2.530749   0.915010   0.013371
    B  -0.868835   0.455213  -1.801966
    B   0.986396  -1.110311  -1.610810
    B  -1.731092   0.194344   1.595634
    B   0.017887   0.294410   1.768079
    B   1.747667   0.480651   1.580951
    H   2.229568   0.887633   2.589209
    H   0.019487   0.493195   2.933388
    H  -2.228985   0.267362   2.663698
    H  -3.440592  -1.512359   0.727835
    H  -3.771243   1.405243   0.619930
    H  -1.140909   2.752335   1.247280
    H   1.148637   2.767549   0.792315
    H   3.422919   1.688170  -0.016017
    H   3.731999  -1.067165   1.128033
    H   1.169488  -2.036976   2.243924
    H  -1.055926  -2.310145   1.633938
    H  -1.816471  -2.354807  -1.370204
    H  -3.274405  -0.238749  -1.976103
    H  -2.314863   2.599898  -1.526393
    H  -0.643434   0.537132  -2.952955
    H   0.841721  -1.607882  -2.679984
    H   3.320459  -0.508280  -1.894398
    H   2.265472  -3.000831  -0.242315
    H   0.021435  -2.903255  -0.530130
    H   1.567386   1.523624  -2.229793
    H  -0.020097   2.627741  -1.207798
    C  -0.237841   1.665513  -0.774314
    C   0.179852  -1.836858  -0.437051
