42
19-5
    B  -1.735977   1.248648  -1.094326
    B   0.000105   1.289762  -1.149391
    B   1.746366   1.269993  -1.110409
    B   2.696258  -0.187759  -1.002907
    B  -1.743933  -1.595752  -0.530279
    B   0.001658  -1.595332  -0.569629
    B   1.737996  -1.586582  -0.541316
    B  -1.030248   1.620972   0.557183
    B   1.021488   1.624670   0.550008
    B  -2.685626   0.957232   0.346130
    B  -2.689769  -0.756434   0.682935
    B  -1.048007  -1.284836   1.135132
    B   1.013642  -1.272860   1.104694
    B   2.677664   0.958109   0.319966
    B  -1.004293  -0.331890  -1.662375
    B   1.051726  -0.326882  -1.694854
    B  -1.751980   0.324812   1.673821
    B  -0.002053   0.323551   1.646595
    B   1.737425   0.325321   1.656321
    H   2.257895   0.450827   2.706515
    H   0.033344   0.562040   2.805845
    H  -2.179302   0.537967   2.752831
    H  -3.660168  -1.314118   1.051110
    H  -3.653053   1.616476   0.474149
    H  -1.098984   2.738532   0.926548
    H   1.100985   2.730548   0.946850
    H   3.649420   1.557096   0.611412
    H   3.387792  -1.201021   1.045999
    H   1.154303  -2.158622   1.868058
    H  -1.062562  -2.187817   1.890856
    H  -2.239292  -2.583137  -0.939422
    H  -3.393567  -0.310688  -1.552868
    H  -2.244239   2.001100  -1.845212
    H  -1.164093  -0.567493  -2.803314
    H   1.085673  -0.572213  -2.848653
    H   3.671240  -0.392127  -1.630083
    H   2.235251  -2.620480  -0.807839
    H  -0.006386  -2.716267  -0.952639
    H   2.177612   2.104684  -1.824969
    H  -0.038806   2.190844  -1.914747
    C  -2.557536  -0.184467  -0.879764
    C   2.553033  -0.682403   0.598035
