42
19-2
    B  -1.803123   1.515695  -0.971989
    B   1.542140   1.045397  -1.232769
    B   2.593628  -0.360088  -1.021678
    B  -2.589936  -0.082012  -1.074315
    B  -1.579719  -1.460667  -0.703485
    B   1.789711  -1.771363  -0.300944
    B  -1.117526   1.662524   0.709371
    B   0.972417   1.599734   0.488050
    B  -2.735573   0.916236   0.361530
    B  -2.629989  -0.799803   0.531625
    B  -0.968312  -1.290033   1.035004
    B   1.117871  -1.253363   1.305492
    B   2.717127  -0.705765   0.710899
    B   2.621782   0.942239   0.157524
    B  -0.964415   0.095215  -1.745575
    B   1.037853  -0.803797  -1.635181
    B  -1.760383   0.237467   1.646722
    B   0.001142   0.318978   1.730633
    B   1.760640   0.430836   1.620203
    H   2.211734   0.758581   2.657477
    H  -0.005954   0.534621   2.888548
    H  -2.208662   0.349727   2.732635
    H  -3.530366  -1.465624   0.909353
    H  -3.699741   1.550500   0.614304
    H  -1.127993   2.755310   1.136096
    H   1.072831   2.751781   0.704612
    H   3.523458   1.699285   0.239854
    H   3.677361  -1.206940   1.186275
    H   1.155862  -2.103387   2.113085
    H  -1.020495  -2.293341   1.645204
    H  -1.926775  -2.477283  -1.185266
    H  -3.457310  -0.256171  -1.859140
    H  -2.170270   2.412878  -1.649128
    H  -0.891044   0.084269  -2.918039
    H   0.971647  -1.235393  -2.724997
    H   3.467304  -0.486156  -1.810854
    H   2.150993  -2.870051  -0.535305
    H   0.034770  -2.656516  -0.767628
    H   1.863764   1.799408  -2.086254
    H  -0.065184   2.309446  -1.510531
    C  -0.152527   1.418632  -0.889327
    C   0.121263  -1.605005  -0.498090
