42
19-4
    B  -1.718369   1.172871  -1.127638
    B   0.023686   1.369185  -1.136058
    B   1.772467   1.300499  -1.041823
    B   2.728323  -0.182784  -0.995659
    B  -1.482267  -1.609267  -0.241923
    B   1.762830  -1.604620  -0.756438
    B  -1.076293   1.683263   0.528432
    B   1.014984   1.584201   0.605390
    B  -2.700092   0.922234   0.275952
    B  -2.603804  -0.759248   0.799837
    B  -1.086425  -1.098078   1.556676
    B   0.860391  -1.374447   0.874454
    B   2.599931  -0.871248   0.613742
    B   2.687951   0.865246   0.381142
    B  -0.934743  -0.354654  -1.648933
    B   1.097390  -0.201815  -1.803691
    B  -1.822789   0.521881   1.729614
    B  -0.093704   0.484916   1.730150
    B   1.661228   0.166469   1.613474
    H   2.054785   0.208428   2.724963
    H  -0.003880   0.807469   2.863403
    H  -2.303546   0.869900   2.749937
    H  -3.553722  -1.385158   1.110372
    H  -3.734224   1.484877   0.301133
    H  -1.177080   2.829099   0.783041
    H   1.106526   2.674305   1.047680
    H   3.605802   1.532754   0.709535
    H   3.443429  -1.535461   1.108955
    H   0.782276  -2.438009   1.380787
    H  -1.121787  -1.873329   2.440778
    H  -1.872401  -2.677136  -0.552656
    H  -3.266358  -0.576861  -1.464420
    H  -2.269960   1.807645  -1.953569
    H  -1.162558  -0.698719  -2.752246
    H   1.081222  -0.366378  -2.968741
    H   3.673492  -0.317787  -1.692614
    H   2.115819  -2.654835  -1.162512
    H   0.064191  -2.390115  -1.367203
    H   2.206749   2.160371  -1.723654
    H  -0.042997   2.289127  -1.875038
    C  -2.447890  -0.323520  -0.805665
    C   0.129416  -1.435271  -0.858968
