42
19-4
    B  -1.714403   1.177556  -1.118413
    B   0.026781   1.370689  -1.137303
    B   1.770795   1.295887  -1.050974
    B   2.724207  -0.191204  -0.990681
    B  -1.518889  -1.619120  -0.282623
    B   1.750691  -1.599125  -0.722695
    B  -1.072867   1.665934   0.537936
    B   1.031167   1.596996   0.591001
    B  -2.699723   0.920911   0.283716
    B  -2.612447  -0.766350   0.788078
    B  -1.094339  -1.141836   1.521552
    B   0.848305  -1.317391   0.912794
    B   2.605607  -0.849622   0.632181
    B   2.697755   0.881941   0.368263
    B  -0.941477  -0.349113  -1.652526
    B   1.098401  -0.213172  -1.800191
    B  -1.813183   0.496045   1.725132
    B  -0.077562   0.424960   1.682279
    B   1.697922   0.214377   1.631918
    H   2.101889   0.296598   2.736914
    H   0.015389   0.702340   2.828752
    H  -2.278832   0.831972   2.756202
    H  -3.569540  -1.381543   1.098557
    H  -3.727794   1.496635   0.317126
    H  -1.165207   2.806824   0.815271
    H   1.101351   2.691666   1.020999
    H   3.619717   1.554508   0.670925
    H   3.446864  -1.517472   1.122294
    H   0.793881  -2.376048   1.428889
    H  -1.148611  -1.923880   2.399999
    H  -1.913306  -2.679831  -0.620040
    H  -3.281934  -0.546313  -1.476131
    H  -2.262954   1.828384  -1.934028
    H  -1.165041  -0.691136  -2.758529
    H   1.085565  -0.396085  -2.963086
    H   3.666395  -0.343644  -1.688757
    H   2.098358  -2.662347  -1.099448
    H   0.063783  -2.394308  -1.324785
    H   2.204532   2.146879  -1.745537
    H  -0.044869   2.306303  -1.854493
    C  -2.460612  -0.313227  -0.815865
    C   0.112236  -1.428636  -0.834673
