42
19-0
    B  -1.730021   1.276813  -1.105418
    B   0.010756   1.277907  -1.121774
    B   1.766300   1.268021  -1.107191
    B   2.710459  -0.195268  -0.989135
    B  -2.672013  -0.194978  -1.013174
    B  -1.732867  -1.593930  -0.542666
    B   0.008983  -1.618695  -0.546518
    B   1.764046  -1.592084  -0.544161
    B  -0.994425   1.615434   0.548690
    B   1.052218   1.620403   0.551363
    B  -0.996938  -1.285737   1.118714
    B   1.051407  -1.292418   1.124924
    B   2.714298  -0.761317   0.666989
    B   2.713641   0.955781   0.329247
    B  -1.032715  -0.332277  -1.691449
    B   1.035132  -0.332320  -1.681288
    B  -1.713984   0.327299   1.659017
    B   0.010569   0.324838   1.663300
    B   1.770187   0.325283   1.655011
    H   2.148952   0.541559   2.751768
    H  -0.046650   0.553947   2.825935
    H  -2.304175   0.523012   2.658108
    H  -3.425108  -1.109923   1.046814
    H  -3.423013   1.429543   0.548725
    H  -1.201409   2.704521   0.944434
    H   1.032366   2.733176   0.941198
    H   3.612082   1.682737   0.578679
    H   3.612934  -1.339649   1.172633
    H   1.033277  -2.174471   1.907743
    H  -1.205030  -2.143622   1.897422
    H  -2.282377  -2.600791  -0.814022
    H  -3.705238  -0.303764  -1.562791
    H  -2.277017   2.108040  -1.737353
    H  -1.149510  -0.557767  -2.841697
    H   1.069608  -0.560432  -2.836819
    H   3.609796  -0.344827  -1.741437
    H   2.156992  -2.644334  -0.907751
    H  -0.039579  -2.734384  -0.940789
    H   2.158705   2.104903  -1.841635
    H  -0.036042   2.160309  -1.910814
    C  -2.537581  -0.691766   0.596347
    C  -2.536019   0.871227   0.289823
