42
19-2
    B  -1.731194   1.400813  -0.998376
    B   1.685496   1.181651  -1.214316
    B   2.656211  -0.272688  -1.011654
    B  -2.624442  -0.131486  -1.022124
    B  -1.650487  -1.532137  -0.607616
    B   1.732486  -1.671175  -0.434922
    B  -1.116010   1.644466   0.734010
    B   0.979191   1.598977   0.470732
    B  -2.703219   0.937578   0.361261
    B  -2.669795  -0.788567   0.603304
    B  -1.031585  -1.294132   1.130362
    B   1.063498  -1.250161   1.232003
    B   2.688984  -0.726053   0.679097
    B   2.659226   0.954662   0.237201
    B  -0.965704  -0.155008  -1.678869
    B   1.064487  -0.513417  -1.716051
    B  -1.783847   0.265462   1.696650
    B  -0.021489   0.323963   1.738497
    B   1.745528   0.400484   1.620680
    H   2.178879   0.691756   2.678699
    H  -0.005058   0.544635   2.896714
    H  -2.223986   0.410726   2.781758
    H  -3.583317  -1.418805   1.006296
    H  -3.636130   1.634067   0.567086
    H  -1.120912   2.752739   1.124025
    H   1.027915   2.756457   0.683733
    H   3.562280   1.695444   0.411455
    H   3.613399  -1.288114   1.154027
    H   1.089497  -2.153443   1.982379
    H  -1.067074  -2.276723   1.773981
    H  -2.010470  -2.573080  -1.037729
    H  -3.497501  -0.287314  -1.801697
    H  -2.063310   2.267442  -1.726728
    H  -0.964519  -0.267833  -2.845618
    H   1.052780  -0.841720  -2.840612
    H   3.546057  -0.434410  -1.772083
    H   2.066117  -2.762330  -0.740546
    H   0.019945  -2.579023  -0.841747
    H   2.030963   2.000288  -1.990466
    H  -0.018691   2.071889  -1.729739
    C  -0.022208   1.239534  -1.037805
    C   0.048007  -1.549412  -0.511256
