42
19-5
    B  -1.739793   1.256759  -1.096848
    B   0.002459   1.279247  -1.129005
    B   1.755214   1.273162  -1.117022
    B   2.694868  -0.185705  -1.001616
    B  -1.740120  -1.584130  -0.534225
    B   0.001347  -1.597447  -0.552210
    B   1.743797  -1.585668  -0.546490
    B  -1.033106   1.621725   0.559487
    B   1.036646   1.626545   0.549938
    B  -2.689137   0.951897   0.342998
    B  -2.695106  -0.759225   0.679466
    B  -1.053044  -1.293605   1.138854
    B   1.009641  -1.276708   1.114636
    B   2.688745   0.960996   0.313830
    B  -1.010153  -0.326613  -1.663386
    B   1.048673  -0.326405  -1.689488
    B  -1.758198   0.324679   1.670672
    B  -0.003360   0.320474   1.662654
    B   1.738849   0.321833   1.640302
    H   2.244534   0.459906   2.695453
    H   0.025956   0.558696   2.822967
    H  -2.186164   0.541872   2.748939
    H  -3.665935  -1.317572   1.045597
    H  -3.660971   1.605825   0.469881
    H  -1.107847   2.737658   0.927152
    H   1.109742   2.735452   0.939827
    H   3.660849   1.559573   0.605374
    H   3.394524  -1.200951   1.042081
    H   1.167881  -2.158261   1.876868
    H  -1.075276  -2.194099   1.898187
    H  -2.227422  -2.573650  -0.947554
    H  -3.394133  -0.311765  -1.557781
    H  -2.250714   2.010620  -1.844796
    H  -1.169819  -0.559647  -2.805953
    H   1.071367  -0.573720  -2.840843
    H   3.668959  -0.396748  -1.630191
    H   2.234401  -2.620439  -0.822686
    H   0.003709  -2.717903  -0.939125
    H   2.186386   2.103903  -1.836388
    H  -0.027478   2.176150  -1.900708
    C  -2.559839  -0.180013  -0.883634
    C   2.560067  -0.682701   0.590785
