42
19-2
    B  -1.785587   1.494059  -0.973524
    B   1.577150   1.073420  -1.238571
    B   2.607985  -0.340792  -1.019625
    B  -2.592679  -0.089030  -1.062228
    B  -1.591205  -1.479985  -0.681311
    B   1.763494  -1.754281  -0.329692
    B  -1.117179   1.661541   0.734372
    B   0.964727   1.605117   0.472659
    B  -2.724726   0.919099   0.365999
    B  -2.635110  -0.794056   0.551006
    B  -0.977890  -1.298185   1.065764
    B   1.089765  -1.245174   1.278901
    B   2.700353  -0.705910   0.699988
    B   2.626023   0.944948   0.174195
    B  -0.961073   0.044570  -1.732036
    B   1.057640  -0.736877  -1.681161
    B  -1.760960   0.236640   1.661822
    B  -0.002818   0.324985   1.741651
    B   1.746052   0.428685   1.607983
    H   2.200238   0.761016   2.655315
    H   0.003856   0.539886   2.903340
    H  -2.207515   0.352221   2.747107
    H  -3.536628  -1.450293   0.930558
    H  -3.686626   1.563057   0.606917
    H  -1.131360   2.759033   1.163430
    H   1.055174   2.763185   0.690031
    H   3.531496   1.696156   0.285598
    H   3.649622  -1.211863   1.182400
    H   1.115389  -2.113776   2.079835
    H  -1.025615  -2.296140   1.695078
    H  -1.961458  -2.509554  -1.165987
    H  -3.456880  -0.257769  -1.847368
    H  -2.150426   2.383079  -1.652332
    H  -0.900322   0.003251  -2.906313
    H   1.021342  -1.138858  -2.796751
    H   3.489465  -0.473951  -1.791356
    H   2.124090  -2.852550  -0.575914
    H   0.028585  -2.650642  -0.766531
    H   1.904763   1.837879  -2.068982
    H  -0.037665   2.247006  -1.564531
    C  -0.112287   1.381174  -0.932250
    C   0.098799  -1.614316  -0.503486
