42
19-2
    B  -1.786364   1.637161  -0.981956
    B   1.172098   0.877511  -1.347599
    B   2.352147  -0.431533  -1.108056
    B  -2.334520  -0.008403  -1.195527
    B  -1.181056  -1.334582  -0.905159
    B   1.798744  -1.880353  -0.303793
    B  -1.109694   1.706831   0.761485
    B   0.893432   1.666278   0.612415
    B  -2.697133   0.867886   0.276664
    B  -2.463247  -0.827047   0.315639
    B  -0.904757  -1.320884   1.172002
    B   1.101740  -1.299209   1.338077
    B   2.701676  -0.701251   0.586507
    B   2.457186   0.886983  -0.003539
    B  -0.645705   0.429410  -1.777379
    B   0.650478  -1.043841  -1.490701
    B  -1.737035   0.173694   1.571364
    B  -0.003801   0.348617   1.857214
    B   1.724143   0.415367   1.522099
    H   2.270199   0.765125   2.510281
    H  -0.006251   0.569559   3.014945
    H  -2.284419   0.208763   2.617948
    H  -3.336479  -1.592513   0.535651
    H  -3.735908   1.365611   0.537342
    H  -1.213910   2.753221   1.292763
    H   1.155305   2.766424   0.952075
    H   3.311467   1.699593  -0.085500
    H   3.740468  -1.059078   1.019036
    H   1.208236  -2.078808   2.214178
    H  -1.147866  -2.222723   1.892834
    H  -1.521127  -2.254853  -1.562521
    H  -3.102379  -0.247423  -2.061141
    H  -2.222562   2.544930  -1.595124
    H  -0.609497   0.621114  -2.940325
    H   0.613894  -1.657672  -2.496814
    H   3.122980  -0.529320  -1.997832
    H   2.229183  -2.955261  -0.527068
    H  -0.004592  -2.959418  -0.045609
    H   1.522174   1.492997  -2.294057
    H   0.016297   2.742143  -1.137677
    C  -0.172103   1.763265  -0.719126
    C   0.178556  -1.892310  -0.020017
