42
19-3
    B  -0.000644   1.378626  -1.222451
    B   2.683628  -0.214863  -0.979355
    B  -2.682957  -0.216930  -0.979370
    B  -1.759517  -1.625780  -0.530373
    B   0.000924  -1.564677  -0.537859
    B   1.760871  -1.623328  -0.528841
    B  -1.021140   1.602210   0.582464
    B   1.018601   1.602536   0.581862
    B  -2.683887   0.939919   0.350233
    B  -2.718845  -0.763332   0.662926
    B  -1.054989  -1.293936   1.129684
    B   1.056411  -1.293382   1.130221
    B   2.719501  -0.760481   0.664023
    B   2.683669   0.943121   0.350368
    B  -1.016625  -0.358217  -1.666294
    B   1.017622  -0.356874  -1.666450
    B  -1.760476   0.302623   1.681841
    B  -0.000418   0.331292   1.624505
    B   1.759001   0.304684   1.681180
    H   2.183713   0.529212   2.759093
    H  -0.001449   0.650499   2.764358
    H  -2.187532   0.525778   2.759117
    H  -3.656427  -1.304188   1.134332
    H  -3.546721   1.737969   0.439886
    H  -1.141448   2.745049   0.835654
    H   1.139501   2.745563   0.834184
    H   3.547692   1.739650   0.440377
    H   3.658199  -1.299351   1.135449
    H   1.087582  -2.179506   1.903301
    H  -1.085760  -2.180741   1.902062
    H  -2.185234  -2.660914  -0.904365
    H  -3.546587  -0.202204  -1.781337
    H  -2.018072   1.873281  -1.629754
    H  -1.143553  -0.455453  -2.832352
    H   1.144881  -0.454216  -2.832427
    H   3.547873  -0.197335  -1.780533
    H   2.189521  -2.657585  -0.902490
    H   0.001625  -2.651478  -1.008272
    H   2.014308   1.873913  -1.630876
    H  -0.001320   2.265893  -2.000967
    C  -1.632972   1.112825  -0.967845
    C   1.631451   1.113128  -0.967908
