42
19-5
    B  -1.739254   1.258126  -1.098693
    B   0.002081   1.277475  -1.128158
    B   1.754963   1.276031  -1.118700
    B   2.693652  -0.184666  -1.000585
    B  -1.741690  -1.586318  -0.537152
    B  -0.000052  -1.602318  -0.548755
    B   1.742046  -1.583057  -0.545243
    B  -1.033507   1.620763   0.560805
    B   1.034480   1.626766   0.548791
    B  -2.687396   0.951965   0.341797
    B  -2.694514  -0.758936   0.679116
    B  -1.051021  -1.294279   1.136008
    B   1.009863  -1.274928   1.114679
    B   2.688080   0.963021   0.313038
    B  -1.009961  -0.326898  -1.662877
    B   1.050957  -0.326796  -1.690069
    B  -1.755807   0.323279   1.666429
    B  -0.001905   0.320088   1.669010
    B   1.739988   0.323296   1.639864
    H   2.248935   0.461318   2.693605
    H   0.028679   0.557521   2.828320
    H  -2.183406   0.540575   2.744781
    H  -3.666050  -1.315207   1.046189
    H  -3.658241   1.606655   0.471650
    H  -1.107348   2.736766   0.929768
    H   1.107037   2.734826   0.940702
    H   3.658917   1.560661   0.609936
    H   3.392500  -1.200106   1.042069
    H   1.167773  -2.157995   1.876140
    H  -1.073755  -2.195477   1.894435
    H  -2.233076  -2.573804  -0.950700
    H  -3.393055  -0.311564  -1.558362
    H  -2.249035   2.012416  -1.846754
    H  -1.167984  -0.559070  -2.805380
    H   1.075440  -0.575210  -2.841600
    H   3.665588  -0.399998  -1.630737
    H   2.231886  -2.617883  -0.821856
    H   0.000996  -2.723595  -0.931575
    H   2.183370   2.106799  -1.839320
    H  -0.029265   2.174508  -1.899899
    C  -2.558798  -0.178650  -0.884320
    C   2.558891  -0.682099   0.589599
