42
19-2
    B  -1.761050   1.470531  -0.974934
    B   1.587110   1.097073  -1.247376
    B   2.614452  -0.321810  -1.015778
    B  -2.592744  -0.092981  -1.046481
    B  -1.608262  -1.495126  -0.665630
    B   1.758488  -1.740128  -0.345962
    B  -1.106554   1.658414   0.741817
    B   0.951577   1.602711   0.458895
    B  -2.711334   0.928405   0.375725
    B  -2.643745  -0.787742   0.567497
    B  -0.988919  -1.303954   1.080901
    B   1.072937  -1.253038   1.273140
    B   2.693269  -0.708274   0.703649
    B   2.622878   0.947068   0.188160
    B  -0.956857   0.005828  -1.715507
    B   1.063400  -0.675430  -1.711055
    B  -1.761953   0.246030   1.675056
    B  -0.011648   0.317295   1.745013
    B   1.736177   0.418708   1.614117
    H   2.186217   0.740739   2.658932
    H  -0.014073   0.532805   2.903863
    H  -2.205974   0.369205   2.760812
    H  -3.554336  -1.434189   0.954176
    H  -3.662233   1.587918   0.615905
    H  -1.111912   2.754869   1.164718
    H   1.031519   2.759541   0.672322
    H   3.526123   1.696699   0.315247
    H   3.640406  -1.220786   1.191105
    H   1.097982  -2.123402   2.062881
    H  -1.035686  -2.298376   1.708335
    H  -1.975359  -2.521521  -1.139051
    H  -3.463740  -0.253015  -1.830280
    H  -2.112221   2.359753  -1.664479
    H  -0.908505  -0.046484  -2.899025
    H   1.042582  -1.055800  -2.832655
    H   3.505255  -0.456047  -1.782222
    H   2.116632  -2.833526  -0.600640
    H   0.059620  -2.658455  -0.782679
    H   1.916971   1.874578  -2.070117
    H  -0.037723   2.197289  -1.623334
    C  -0.091315   1.339338  -0.976956
    C   0.092552  -1.618710  -0.504106
