42
19-3
    B  -0.000555   1.374880  -1.228445
    B   2.668979  -0.206202  -0.975480
    B  -2.670309  -0.205998  -0.980553
    B  -1.763209  -1.622568  -0.528700
    B   0.003824  -1.555101  -0.536920
    B   1.782097  -1.644083  -0.531709
    B  -0.998197   1.581128   0.582876
    B   1.001588   1.591122   0.585860
    B  -2.702215   0.948469   0.358717
    B  -2.717680  -0.758214   0.658850
    B  -1.068531  -1.305146   1.135516
    B   1.057614  -1.293185   1.130052
    B   2.708330  -0.748271   0.658540
    B   2.663380   0.950680   0.351046
    B  -1.009633  -0.358332  -1.661815
    B   1.009912  -0.356936  -1.655822
    B  -1.751641   0.302940   1.658186
    B  -0.001465   0.331346   1.610686
    B   1.760648   0.306121   1.677276
    H   2.199781   0.547369   2.745396
    H   0.009270   0.621622   2.758889
    H  -2.177767   0.530991   2.737360
    H  -3.658008  -1.297803   1.127305
    H  -3.546942   1.762505   0.443133
    H  -1.107936   2.726179   0.838116
    H   1.093058   2.738556   0.834137
    H   3.522426   1.752943   0.439086
    H   3.655057  -1.280304   1.124590
    H   1.115358  -2.176645   1.905558
    H  -1.118783  -2.186563   1.911541
    H  -2.193010  -2.655663  -0.904570
    H  -3.527764  -0.182135  -1.789444
    H  -1.992536   1.866665  -1.610345
    H  -1.151470  -0.459987  -2.825873
    H   1.145466  -0.472137  -2.820436
    H   3.535328  -0.188540  -1.775421
    H   2.187730  -2.683475  -0.907959
    H   0.020839  -2.644075  -1.001807
    H   2.013039   1.873727  -1.618453
    H  -0.003532   2.261983  -2.006813
    C  -1.607504   1.103518  -0.949344
    C   1.614963   1.111618  -0.965809
