42
19-2
    B  -1.791695   1.505275  -0.969327
    B   1.564828   1.059735  -1.241789
    B   2.602626  -0.351100  -1.020999
    B  -2.588161  -0.083223  -1.067229
    B  -1.581615  -1.472595  -0.689102
    B   1.767631  -1.763162  -0.317452
    B  -1.119463   1.663625   0.735083
    B   0.966251   1.603631   0.472503
    B  -2.728088   0.918026   0.364996
    B  -2.632554  -0.795133   0.543556
    B  -0.974082  -1.298629   1.059300
    B   1.094932  -1.245588   1.286631
    B   2.703613  -0.706191   0.702166
    B   2.624765   0.941381   0.166613
    B  -0.958874   0.069473  -1.732838
    B   1.055596  -0.762947  -1.672765
    B  -1.761173   0.234095   1.657945
    B  -0.004241   0.325136   1.742765
    B   1.748989   0.429561   1.606981
    H   2.200684   0.762022   2.640468
    H   0.000688   0.538619   2.900590
    H  -2.210082   0.347428   2.743866
    H  -3.535414  -1.457034   0.919506
    H  -3.692581   1.555766   0.607978
    H  -1.135320   2.754410   1.165939
    H   1.060581   2.757378   0.687450
    H   3.529623   1.692274   0.270170
    H   3.658230  -1.208733   1.186246
    H   1.120187  -2.102310   2.085859
    H  -1.023145  -2.292799   1.682545
    H  -1.944492  -2.479578  -1.170699
    H  -3.451590  -0.253923  -1.856008
    H  -2.160724   2.400816  -1.645516
    H  -0.889565   0.038304  -2.898739
    H   1.014092  -1.168024  -2.767624
    H   3.484844  -0.483492  -1.798285
    H   2.130823  -2.861346  -0.557633
    H   0.044611  -2.681190  -0.763698
    H   1.890835   1.822989  -2.084800
    H  -0.062775   2.277456  -1.550210
    C  -0.131985   1.395226  -0.919408
    C   0.113189  -1.619629  -0.501038
