42
19-3
    B  -0.000434   1.377449  -1.220503
    B   2.684080  -0.213912  -0.978742
    B  -2.683469  -0.217056  -0.979336
    B  -1.759409  -1.624747  -0.529611
    B   0.001110  -1.566670  -0.538164
    B   1.760799  -1.622040  -0.529274
    B  -1.019602   1.601909   0.581365
    B   1.017215   1.601650   0.581316
    B  -2.683454   0.941735   0.349476
    B  -2.718951  -0.762651   0.663269
    B  -1.055218  -1.294160   1.129771
    B   1.057279  -1.294336   1.130253
    B   2.720125  -0.759764   0.663724
    B   2.683190   0.943540   0.350589
    B  -1.017055  -0.357706  -1.665741
    B   1.018158  -0.356066  -1.665795
    B  -1.760502   0.302970   1.681128
    B  -0.000160   0.327991   1.623247
    B   1.759167   0.304237   1.681174
    H   2.184349   0.529136   2.758874
    H  -0.001899   0.647235   2.763456
    H  -2.187346   0.528194   2.758172
    H  -3.656753  -1.302838   1.134988
    H  -3.547676   1.737885   0.441396
    H  -1.141474   2.744857   0.833953
    H   1.139515   2.744403   0.834866
    H   3.546021   1.741200   0.442401
    H   3.658346  -1.299271   1.135349
    H   1.089624  -2.180679   1.903023
    H  -1.087364  -2.180332   1.902873
    H  -2.185999  -2.659679  -0.903285
    H  -3.547354  -0.202318  -1.781009
    H  -2.016467   1.873433  -1.630732
    H  -1.143673  -0.455235  -2.831830
    H   1.145344  -0.452791  -2.831883
    H   3.547692  -0.196398  -1.780647
    H   2.189044  -2.656318  -0.903191
    H   0.001165  -2.653660  -1.007663
    H   2.014357   1.876047  -1.630773
    H  -0.001339   2.261304  -2.002825
    C  -1.633799   1.112229  -0.968238
    C   1.632815   1.114227  -0.968424
