42
19-2
    B  -1.753999   1.424537  -0.988627
    B   1.675048   1.159696  -1.209870
    B   2.641853  -0.295127  -1.013395
    B  -2.605349  -0.107417  -1.030302
    B  -1.630599  -1.505473  -0.617157
    B   1.747223  -1.687597  -0.421089
    B  -1.111788   1.631276   0.726117
    B   0.958744   1.584148   0.453551
    B  -2.715439   0.945909   0.374205
    B  -2.653694  -0.789090   0.584768
    B  -1.038355  -1.281211   1.124510
    B   1.073912  -1.258869   1.233153
    B   2.686664  -0.713468   0.692171
    B   2.646169   0.949636   0.217251
    B  -0.962486  -0.076291  -1.685294
    B   1.059732  -0.562094  -1.684069
    B  -1.772760   0.266486   1.692982
    B  -0.010607   0.291033   1.712601
    B   1.743041   0.415682   1.628439
    H   2.182690   0.705217   2.681531
    H  -0.003244   0.515721   2.869427
    H  -2.219351   0.411432   2.775828
    H  -3.570639  -1.430533   0.966780
    H  -3.646930   1.630092   0.616504
    H  -1.121920   2.733098   1.128940
    H   0.988695   2.735765   0.679517
    H   3.534975   1.711059   0.373435
    H   3.616004  -1.262537   1.176721
    H   1.117424  -2.147383   1.998159
    H  -1.069875  -2.275044   1.748627
    H  -1.972005  -2.543216  -1.058088
    H  -3.479167  -0.280453  -1.807593
    H  -2.074572   2.311489  -1.700763
    H  -0.968240  -0.195640  -2.853123
    H   1.017382  -0.952627  -2.786643
    H   3.534593  -0.469575  -1.770338
    H   2.106050  -2.772006  -0.716791
    H   0.024113  -2.553503  -0.854636
    H   2.023503   1.964206  -2.003488
    H  -0.023829   2.071591  -1.716981
    C  -0.043155   1.233576  -1.026273
    C   0.070189  -1.526495  -0.506697
