42
19-4
    B  -1.694144   1.145596  -1.129299
    B   0.039488   1.367577  -1.164226
    B   1.743025   1.297872  -1.026745
    B   2.713185  -0.191480  -0.984722
    B  -1.535189  -1.635790  -0.286539
    B   1.772392  -1.599301  -0.743051
    B  -1.043868   1.665334   0.531209
    B   1.020514   1.593612   0.596488
    B  -2.688146   0.929631   0.285451
    B  -2.602405  -0.759884   0.801304
    B  -1.098209  -1.123625   1.540943
    B   0.837050  -1.326817   0.898333
    B   2.598580  -0.842085   0.635373
    B   2.664426   0.879264   0.374346
    B  -0.935181  -0.367164  -1.675680
    B   1.095265  -0.213566  -1.820401
    B  -1.789213   0.515838   1.730848
    B  -0.077598   0.425463   1.659441
    B   1.699685   0.204740   1.650597
    H   2.104027   0.282319   2.753308
    H   0.013458   0.677971   2.807914
    H  -2.234754   0.867850   2.766565
    H  -3.574327  -1.356559   1.102832
    H  -3.702110   1.518910   0.308899
    H  -1.140786   2.799225   0.817453
    H   1.079735   2.689627   1.048729
    H   3.593353   1.551623   0.677617
    H   3.450493  -1.506414   1.130270
    H   0.809616  -2.393750   1.437487
    H  -1.173716  -1.887737   2.428434
    H  -1.917256  -2.691032  -0.607434
    H  -3.298465  -0.522861  -1.478872
    H  -2.258805   1.793378  -1.936852
    H  -1.169679  -0.732918  -2.767982
    H   1.092241  -0.386524  -2.979637
    H   3.661318  -0.341046  -1.676566
    H   2.137895  -2.656513  -1.111906
    H   0.082205  -2.402489  -1.369608
    H   2.169613   2.157553  -1.713116
    H  -0.089934   2.336987  -1.829136
    C  -2.463644  -0.314378  -0.824230
    C   0.107867  -1.442435  -0.857838
