42
19-4
    B  -1.711681   1.122596  -1.104947
    B   0.006686   1.389319  -1.173429
    B   1.752292   1.273047  -0.962437
    B   2.714311  -0.191967  -0.926083
    B  -1.166685  -1.595632  -0.097912
    B   1.797533  -1.663002  -0.935716
    B  -1.109333   1.820592   0.496566
    B   0.900304   1.629026   0.573623
    B  -2.687364   0.852701   0.310992
    B  -2.338053  -0.751907   0.939852
    B  -0.669073  -0.776918   1.684713
    B   0.681357  -1.721321   0.512623
    B   2.365209  -1.035279   0.588507
    B   2.490352   0.687480   0.517561
    B  -0.887209  -0.319548  -1.718663
    B   1.133469  -0.193156  -1.866340
    B  -1.806278   0.671430   1.793085
    B  -0.162805   1.012655   1.882666
    B   1.181839  -0.084093   1.549719
    H   1.585006  -0.225277   2.656308
    H   0.051548   1.588665   2.891411
    H  -2.384096   0.980038   2.776371
    H  -3.195060  -1.467770   1.316629
    H  -3.774637   1.307511   0.286701
    H  -1.291894   2.982285   0.601830
    H   1.191370   2.712434   0.949899
    H   3.350355   1.263011   1.085089
    H   3.166762  -1.662160   1.185607
    H   0.589919  -2.823496   0.921384
    H  -0.697447  -1.501457   2.618345
    H  -1.603231  -2.688416  -0.200385
    H  -3.127547  -0.805398  -1.270714
    H  -2.331198   1.694000  -1.930200
    H  -1.215260  -0.536784  -2.831828
    H   1.171465  -0.242115  -3.044511
    H   3.748504  -0.214594  -1.497317
    H   2.212579  -2.654879  -1.420955
    H  -0.000502  -2.371760  -1.804863
    H   2.252313   2.162050  -1.558941
    H  -0.048255   2.297143  -1.927390
    C  -2.311671  -0.405292  -0.687642
    C   0.174107  -1.507758  -1.179207
