42
19-0
    B  -1.730000   1.273000  -1.108000
    B   0.011259   1.411290  -1.475935
    B   1.766000   1.267000  -1.106000
    B   2.794454  -0.240498  -1.216103
    B  -2.670000  -0.200000  -1.015000
    B  -1.802558  -1.914949  -0.651996
    B   0.092138  -1.920176  -0.648784
    B   1.574920  -1.630349  -0.554190
    B  -0.924442   1.932949   0.654996
    B   1.159942   1.964525   0.666974
    B  -0.996000  -1.287000   1.117000
    B   1.050000  -1.292000   1.126000
    B   2.713000  -0.760000   0.670000
    B   2.713000   0.958000   0.330000
    B  -1.031000  -0.332000  -1.693000
    B   0.771902  -0.268423  -1.358571
    B  -1.449902   0.262423   1.333571
    B   0.008741   0.204710   2.027935
    B   1.683546   0.372498   1.884103
    H   2.063546   0.588498   2.981103
    H  -0.051259   0.432710   3.189935
    H  -2.041902   0.457423   2.331571
    H  -3.424000  -1.114000   1.045000
    H  -3.425000   1.426000   0.545000
    H  -1.133442   3.021949   1.049996
    H   1.141942   3.077525   1.055974
    H   3.611000   1.685000   0.581000
    H   3.611000  -1.338000   1.178000
    H   1.032000  -2.174000   1.909000
    H  -1.206000  -2.145000   1.895000
    H  -2.350558  -2.922949  -0.923996
    H  -3.701000  -0.308000  -1.569000
    H  -2.278000   2.103000  -1.741000
    H  -1.145000  -0.558000  -2.843000
    H   0.805902  -0.495423  -2.514571
    H   3.694454  -0.388498  -1.968103
    H   1.968920  -2.682349  -0.918190
    H   0.044138  -3.036176  -1.042784
    H   2.160000   2.102000  -1.842000
    H  -0.036741   2.294290  -2.263935
    C  -2.537000  -0.696000   0.594000
    C  -2.537000   0.869000   0.287000
