42
19-0
    B  -1.732998   1.278513  -1.112162
    B   0.002052   1.297566  -1.125645
    B   1.744971   1.295425  -1.073188
    B   2.684681  -0.184982  -0.993008
    B  -2.656149  -0.204100  -1.009636
    B  -1.717316  -1.595896  -0.523611
    B   0.016300  -1.603297  -0.514104
    B   1.756136  -1.600409  -0.529444
    B  -0.957832   1.587875   0.523771
    B   1.074795   1.643608   0.579704
    B  -0.993157  -1.269994   1.100574
    B   1.082327  -1.311087   1.144661
    B   2.732926  -0.758851   0.656195
    B   2.730754   0.971686   0.328242
    B  -1.027825  -0.341768  -1.723959
    B   0.955293  -0.320714  -1.623798
    B  -1.714059   0.336872   1.649508
    B   0.016924   0.312342   1.679283
    B   1.760046   0.309223   1.627126
    H   2.118221   0.498237   2.737642
    H  -0.075256   0.544888   2.837305
    H  -2.297741   0.534145   2.650169
    H  -3.425567  -1.083301   1.028728
    H  -3.428525   1.419541   0.550706
    H  -1.075096   2.693716   0.907221
    H   0.988982   2.739496   1.000900
    H   3.627661   1.699848   0.574036
    H   3.631351  -1.350358   1.147115
    H   1.014871  -2.188655   1.927452
    H  -1.214506  -2.139422   1.864229
    H  -2.266965  -2.608307  -0.771383
    H  -3.680237  -0.333266  -1.573084
    H  -2.286756   2.091718  -1.762107
    H  -1.165040  -0.581330  -2.868156
    H   1.074162  -0.569449  -2.769546
    H   3.556310  -0.341482  -1.775631
    H   2.134911  -2.640804  -0.935012
    H  -0.013822  -2.712410  -0.927789
    H   2.131085   2.114900  -1.830192
    H  -0.037019   2.166450  -1.927480
    C  -2.534410  -0.676288   0.574219
    C  -2.533482   0.880122   0.279149
