42
19-2
    B  -1.712396   1.315114  -1.064563
    B   1.697388   1.242056  -1.135154
    B   2.649285  -0.223659  -1.008848
    B  -2.633696  -0.177358  -1.009707
    B  -1.681901  -1.577762  -0.548124
    B   1.714983  -1.623423  -0.512334
    B  -1.069342   1.629608   0.644843
    B   1.017515   1.609603   0.553158
    B  -2.691711   0.947780   0.328004
    B  -2.678778  -0.766676   0.633830
    B  -1.056874  -1.276445   1.173535
    B   1.044021  -1.268367   1.173146
    B   2.683082  -0.750222   0.657083
    B   2.673199   0.949504   0.284648
    B  -0.999808  -0.267776  -1.672438
    B   1.052890  -0.393539  -1.704540
    B  -1.768376   0.311780   1.672886
    B  -0.010442   0.331228   1.735446
    B   1.750716   0.346540   1.643831
    H   2.195377   0.582220   2.710747
    H   0.000545   0.555227   2.891946
    H  -2.208623   0.510506   2.749569
    H  -3.593540  -1.377372   1.065202
    H  -3.612569   1.659629   0.529227
    H  -1.096051   2.758895   0.963830
    H   1.050983   2.753448   0.817089
    H   3.581184   1.680066   0.475263
    H   3.598949  -1.330496   1.126232
    H   1.077616  -2.203674   1.882093
    H  -1.076270  -2.230382   1.856897
    H  -2.027677  -2.632752  -0.949519
    H  -3.506802  -0.334391  -1.789758
    H  -2.047685   2.166207  -1.811817
    H  -1.010238  -0.464172  -2.827587
    H   1.049312  -0.656462  -2.845563
    H   3.533349  -0.381788  -1.777242
    H   2.061140  -2.696029  -0.864715
    H   0.007350  -2.536508  -0.864959
    H   2.037627   2.078843  -1.896545
    H  -0.005804   2.040887  -1.735710
    C  -0.008090   1.217941  -1.031850
    C   0.020162  -1.511828  -0.513532
