42
19-2
    B  -1.694797   1.280529  -1.085396
    B   1.700775   1.266059  -1.113847
    B   2.658724  -0.204664  -1.010218
    B  -2.645705  -0.197693  -1.006872
    B  -1.713484  -1.601959  -0.527449
    B   1.713190  -1.603167  -0.537482
    B  -1.062112   1.629027   0.622773
    B   1.039111   1.617099   0.582764
    B  -2.688218   0.946324   0.311810
    B  -2.689510  -0.761754   0.645776
    B  -1.051463  -1.273519   1.170808
    B   1.041864  -1.268955   1.156404
    B   2.684155  -0.760240   0.643288
    B   2.681090   0.948304   0.301206
    B  -1.007337  -0.328615  -1.661478
    B   1.055080  -0.350463  -1.708142
    B  -1.770224   0.322074   1.666902
    B  -0.007400   0.348669   1.735973
    B   1.756127   0.327539   1.649390
    H   2.193138   0.541711   2.724008
    H  -0.000153   0.573414   2.892405
    H  -2.209458   0.523600   2.743244
    H  -3.604759  -1.356329   1.097517
    H  -3.606769   1.666371   0.494424
    H  -1.088753   2.763874   0.921794
    H   1.076092   2.757722   0.859838
    H   3.596942   1.668944   0.493192
    H   3.597553  -1.351666   1.102444
    H   1.066392  -2.216384   1.849141
    H  -1.078275  -2.215375   1.871155
    H  -2.039099  -2.669952  -0.912400
    H  -3.521545  -0.336574  -1.786929
    H  -2.043905   2.113884  -1.846065
    H  -1.017737  -0.543160  -2.812402
    H   1.052454  -0.578418  -2.855876
    H   3.543327  -0.346871  -1.780093
    H   2.037792  -2.678655  -0.901663
    H  -0.002549  -2.525562  -0.851439
    H   2.044871   2.109993  -1.864968
    H  -0.000342   2.048693  -1.729302
    C   0.002647   1.220772  -1.031454
    C   0.002269  -1.498625  -0.508782
