42
19-2
    B  -1.769780   1.461885  -0.983656
    B   1.609446   1.104567  -1.221862
    B   2.623073  -0.318414  -1.010497
    B  -2.607071  -0.103247  -1.048986
    B  -1.610809  -1.490869  -0.665681
    B   1.759733  -1.722399  -0.364608
    B  -1.114108   1.657211   0.724186
    B   0.969728   1.592172   0.474510
    B  -2.721333   0.924568   0.364071
    B  -2.649142  -0.792428   0.564127
    B  -0.992407  -1.293129   1.078411
    B   1.089614  -1.248337   1.268649
    B   2.707223  -0.715514   0.701388
    B   2.641610   0.950390   0.197232
    B  -0.969666  -0.022652  -1.714432
    B   1.049625  -0.673870  -1.669660
    B  -1.769815   0.249868   1.668516
    B  -0.008237   0.320537   1.735396
    B   1.754730   0.418418   1.617689
    H   2.203012   0.731067   2.662635
    H  -0.005740   0.539464   2.893640
    H  -2.212983   0.377197   2.754800
    H  -3.556545  -1.440688   0.953431
    H  -3.670698   1.588794   0.597674
    H  -1.120465   2.757041   1.135886
    H   1.043962   2.749306   0.683823
    H   3.544261   1.700311   0.324920
    H   3.650821  -1.244083   1.177964
    H   1.118754  -2.124580   2.051068
    H  -1.031483  -2.289248   1.702289
    H  -1.966253  -2.517927  -1.124888
    H  -3.477784  -0.267994  -1.830782
    H  -2.114535   2.345560  -1.686432
    H  -0.939598  -0.077603  -2.887667
    H   1.015013  -1.060769  -2.777894
    H   3.506928  -0.461592  -1.783447
    H   2.101851  -2.819642  -0.633449
    H   0.033715  -2.607349  -0.805407
    H   1.940304   1.891120  -2.038452
    H  -0.048033   2.180988  -1.615809
    C  -0.097089   1.330423  -0.957146
    C   0.090171  -1.572555  -0.507549
