42
19-2
    B  -1.710703   1.270705  -1.081328
    B   1.715561   1.263456  -1.091640
    B   2.619143  -0.212581  -0.990397
    B  -2.618458  -0.221169  -0.997548
    B  -1.740518  -1.680395  -0.558579
    B   1.669763  -1.636490  -0.528983
    B  -1.082497   1.679687   0.622260
    B   1.092761   1.650850   0.583968
    B  -2.715123   0.911461   0.300742
    B  -2.656465  -0.779150   0.643074
    B  -0.999778  -1.256165   1.140580
    B   0.999547  -1.211916   1.151164
    B   2.664455  -0.790208   0.625631
    B   2.729854   0.925409   0.313205
    B  -0.979541  -0.302862  -1.641214
    B   1.009999  -0.309197  -1.695402
    B  -1.731970   0.293244   1.660942
    B   0.012462   0.345791   1.675128
    B   1.762994   0.366052   1.714168
    H   2.218149   0.565499   2.779788
    H   0.071591   0.574304   2.834614
    H  -2.228501   0.487371   2.716760
    H  -3.562416  -1.391178   1.098085
    H  -3.649566   1.603208   0.504490
    H  -1.164957   2.812051   0.903422
    H   1.164856   2.791791   0.844840
    H   3.660514   1.624532   0.500189
    H   3.559948  -1.400059   1.099392
    H   0.983398  -2.152965   1.856676
    H  -0.996803  -2.206293   1.832636
    H  -2.036938  -2.748839  -0.941838
    H  -3.492164  -0.385187  -1.780487
    H  -2.073875   2.104303  -1.838615
    H  -0.971759  -0.521253  -2.793322
    H   1.017515  -0.536358  -2.841729
    H   3.497845  -0.383514  -1.767834
    H   1.975246  -2.712327  -0.898163
    H  -0.055818  -2.466671  -0.822129
    H   2.074363   2.096138  -1.853314
    H  -0.002343   2.094528  -1.755944
    C   0.002604   1.279371  -1.042488
    C  -0.032374  -1.428976  -0.476803
