42
19-2
    B  -1.785463   1.493395  -0.973669
    B   1.577970   1.073948  -1.238262
    B   2.608382  -0.340355  -1.019411
    B  -2.593113  -0.089332  -1.061945
    B  -1.591771  -1.480121  -0.680969
    B   1.763315  -1.753607  -0.330414
    B  -1.117163   1.661485   0.734298
    B   0.964901   1.605008   0.472686
    B  -2.724723   0.919178   0.366037
    B  -2.635404  -0.793994   0.551343
    B  -0.978148  -1.298069   1.065932
    B   1.089641  -1.245044   1.278484
    B   2.700429  -0.706051   0.699940
    B   2.626302   0.945206   0.174677
    B  -0.961404   0.043125  -1.731907
    B   1.058035  -0.735724  -1.681439
    B  -1.761106   0.236800   1.661990
    B  -0.002833   0.324935   1.741524
    B   1.746062   0.428597   1.608097
    H   2.200286   0.760761   2.655843
    H   0.003957   0.539844   2.903317
    H  -2.207563   0.352494   2.747274
    H  -3.536858  -1.449950   0.931116
    H  -3.686422   1.563479   0.606876
    H  -1.131231   2.759177   1.163130
    H   1.055061   2.763218   0.689902
    H   3.531766   1.696433   0.286443
    H   3.649451  -1.212286   1.182214
    H   1.115317  -2.114064   2.079324
    H  -1.025723  -2.296114   1.695397
    H  -1.962098  -2.510320  -1.165574
    H  -3.457365  -0.257927  -1.846918
    H  -2.150055   2.382179  -1.652731
    H  -0.901104   0.001356  -2.906068
    H   1.021972  -1.137497  -2.797371
    H   3.489875  -0.473600  -1.790892
    H   2.123598  -2.851993  -0.577036
    H   0.028084  -2.649402  -0.767207
    H   1.905756   1.838603  -2.068189
    H  -0.037276   2.245558  -1.565455
    C  -0.111667   1.380140  -0.932801
    C   0.098330  -1.613469  -0.503588
