42
19-2
    B  -1.719399   1.338044  -1.054088
    B   1.689214   1.229160  -1.150366
    B   2.653534  -0.239630  -1.015027
    B  -2.633770  -0.167862  -1.021190
    B  -1.686356  -1.569592  -0.563648
    B   1.730687  -1.639530  -0.488957
    B  -1.081750   1.631217   0.657146
    B   1.014470   1.609081   0.542083
    B  -2.700364   0.944426   0.330942
    B  -2.677016  -0.773939   0.621479
    B  -1.040042  -1.277500   1.147550
    B   1.057597  -1.267429   1.187942
    B   2.688212  -0.742723   0.661124
    B   2.669732   0.948767   0.268345
    B  -0.993270  -0.240556  -1.681654
    B   1.054041  -0.437923  -1.699302
    B  -1.772332   0.301039   1.674381
    B  -0.006846   0.329453   1.726490
    B   1.755250   0.361023   1.643930
    H   2.189049   0.601698   2.713017
    H  -0.003147   0.557052   2.882829
    H  -2.214220   0.478215   2.753964
    H  -3.593686  -1.383210   1.051214
    H  -3.625335   1.650925   0.532680
    H  -1.092684   2.754754   0.996573
    H   1.055224   2.753086   0.806181
    H   3.578908   1.681978   0.443349
    H   3.610102  -1.318941   1.124854
    H   1.084319  -2.192920   1.909333
    H  -1.074831  -2.238149   1.822368
    H  -2.013691  -2.629440  -0.965903
    H  -3.513810  -0.317475  -1.795143
    H  -2.063852   2.187943  -1.798608
    H  -0.997132  -0.419663  -2.840447
    H   1.022781  -0.724195  -2.834110
    H   3.541778  -0.386447  -1.780758
    H   2.062256  -2.721815  -0.823930
    H   0.006841  -2.544301  -0.837017
    H   2.037768   2.057196  -1.917578
    H  -0.010435   2.088847  -1.701936
    C  -0.016749   1.248032  -1.017013
    C   0.028954  -1.512697  -0.507097
