42
19-4
    B  -1.712644   1.172435  -1.120898
    B   0.028116   1.370603  -1.141724
    B   1.767446   1.297454  -1.044749
    B   2.724251  -0.188430  -0.990983
    B  -1.508297  -1.617229  -0.269929
    B   1.759472  -1.601434  -0.738203
    B  -1.070188   1.672019   0.537052
    B   1.023968   1.591665   0.595880
    B  -2.699111   0.922424   0.281800
    B  -2.608410  -0.763252   0.794553
    B  -1.092444  -1.124356   1.536454
    B   0.851881  -1.339526   0.897511
    B   2.602931  -0.856294   0.627039
    B   2.689528   0.875262   0.374106
    B  -0.937847  -0.351746  -1.653282
    B   1.097316  -0.209785  -1.805431
    B  -1.813880   0.506974   1.729123
    B  -0.084236   0.446746   1.696424
    B   1.685345   0.196338   1.628864
    H   2.084093   0.264532   2.736545
    H   0.007430   0.737335   2.838408
    H  -2.283280   0.847432   2.757302
    H  -3.565048  -1.379838   1.103514
    H  -3.727455   1.494633   0.310562
    H  -1.164028   2.814019   0.806580
    H   1.099880   2.685969   1.031983
    H   3.610829   1.546893   0.685933
    H   3.446747  -1.522209   1.120483
    H   0.794687  -2.402166   1.413512
    H  -1.143255  -1.901566   2.417840
    H  -1.899871  -2.678464  -0.596917
    H  -3.279256  -0.553216  -1.473553
    H  -2.264152   1.817873  -1.938772
    H  -1.163262  -0.695082  -2.757170
    H   1.082891  -0.385506  -2.968159
    H   3.668109  -0.334341  -1.688112
    H   2.111428  -2.659173  -1.124480
    H   0.066838  -2.392798  -1.344854
    H   2.200729   2.152308  -1.733865
    H  -0.050758   2.297060  -1.870983
    C  -2.457101  -0.316245  -0.813922
    C   0.118607  -1.431318  -0.845483
