42
19-0
    B  -1.728375   1.279437  -1.104308
    B   0.013835   1.280537  -1.119706
    B   1.764088   1.271010  -1.103316
    B   2.700860  -0.193348  -0.988737
    B  -2.661905  -0.195907  -1.014658
    B  -1.728362  -1.595915  -0.535557
    B   0.014505  -1.619846  -0.544751
    B   1.767936  -1.596318  -0.542142
    B  -0.992664   1.614278   0.544317
    B   1.047420   1.620821   0.550880
    B  -1.000058  -1.288420   1.115217
    B   1.051778  -1.295689   1.126577
    B   2.711824  -0.761082   0.665142
    B   2.712964   0.954266   0.329492
    B  -1.020685  -0.331106  -1.691453
    B   1.013360  -0.329943  -1.670310
    B  -1.712862   0.330679   1.660633
    B   0.009972   0.327870   1.659116
    B   1.766058   0.326014   1.653197
    H   2.149820   0.542076   2.748485
    H  -0.048115   0.534924   2.826068
    H  -2.305659   0.527466   2.656884
    H  -3.427087  -1.108708   1.045313
    H  -3.420592   1.432548   0.545132
    H  -1.195314   2.704547   0.939263
    H   1.030700   2.734639   0.939554
    H   3.610732   1.682257   0.577298
    H   3.611136  -1.338605   1.170658
    H   1.034351  -2.174865   1.911824
    H  -1.208083  -2.147108   1.892583
    H  -2.284872  -2.602230  -0.795288
    H  -3.689632  -0.303038  -1.574678
    H  -2.277317   2.109321  -1.735687
    H  -1.152805  -0.556446  -2.840212
    H   1.067819  -0.555699  -2.825296
    H   3.596697  -0.340838  -1.746315
    H   2.166897  -2.642260  -0.917602
    H  -0.039705  -2.735531  -0.939383
    H   2.160365   2.098334  -1.846099
    H  -0.035920   2.163195  -1.908944
    C  -2.537529  -0.692898   0.597003
    C  -2.534574   0.871579   0.288805
