42
19-4
    B  -1.730181   1.131597  -1.128286
    B   0.009883   1.388253  -1.154141
    B   1.776279   1.288669  -0.984619
    B   2.735351  -0.195040  -0.944673
    B  -1.209037  -1.564395  -0.113261
    B   1.800186  -1.655629  -0.932663
    B  -1.113132   1.797739   0.502164
    B   0.936136   1.589195   0.596013
    B  -2.689635   0.867468   0.296693
    B  -2.399418  -0.765252   0.921847
    B  -0.808221  -0.824312   1.706037
    B   0.718086  -1.666145   0.561706
    B   2.404782  -1.026008   0.594675
    B   2.560041   0.728285   0.477436
    B  -0.903037  -0.333381  -1.695680
    B   1.122400  -0.175324  -1.865208
    B  -1.817912   0.663950   1.775530
    B  -0.153977   0.883587   1.882045
    B   1.300265  -0.011381   1.517017
    H   1.599770  -0.145099   2.658166
    H  -0.008913   1.449233   2.908901
    H  -2.379799   1.022524   2.750383
    H  -3.272260  -1.476398   1.270254
    H  -3.773689   1.321648   0.284624
    H  -1.278557   2.959367   0.636532
    H   1.159453   2.670051   1.025231
    H   3.458339   1.318227   0.972176
    H   3.191016  -1.684378   1.188194
    H   0.580109  -2.758989   0.994492
    H  -0.716016  -1.552417   2.625412
    H  -1.560768  -2.677340  -0.256353
    H  -3.168774  -0.769305  -1.309119
    H  -2.330691   1.706491  -1.963921
    H  -1.203611  -0.619807  -2.795177
    H   1.133436  -0.251891  -3.039695
    H   3.749399  -0.258415  -1.545826
    H   2.195282  -2.651915  -1.425228
    H   0.025923  -2.339898  -1.703724
    H   2.253226   2.177546  -1.594976
    H  -0.043135   2.309815  -1.895824
    C  -2.342041  -0.398536  -0.710714
    C   0.191443  -1.466392  -1.086438
