42
19-2
    B  -1.756946   1.450389  -0.982379
    B   1.620117   1.115781  -1.222820
    B   2.627032  -0.309261  -1.008869
    B  -2.608023  -0.106891  -1.043843
    B  -1.618092  -1.497148  -0.660761
    B   1.751433  -1.711150  -0.377819
    B  -1.114169   1.655572   0.733912
    B   0.962703   1.590630   0.466240
    B  -2.714229   0.925939   0.366035
    B  -2.651630  -0.791916   0.570109
    B  -0.993642  -1.294273   1.084829
    B   1.080870  -1.245690   1.262388
    B   2.700689  -0.715423   0.699536
    B   2.641111   0.952459   0.204162
    B  -0.966122  -0.050477  -1.702633
    B   1.053728  -0.646995  -1.679933
    B  -1.770320   0.250631   1.675070
    B  -0.009833   0.322357   1.739594
    B   1.751582   0.416462   1.614618
    H   2.200463   0.727574   2.659996
    H  -0.006172   0.542128   2.898008
    H  -2.210870   0.379573   2.762033
    H  -3.560302  -1.436181   0.962327
    H  -3.659916   1.598082   0.593226
    H  -1.120831   2.755613   1.147067
    H   1.035747   2.750180   0.669665
    H   3.544459   1.699797   0.342992
    H   3.640001  -1.249314   1.178148
    H   1.105712  -2.127049   2.039685
    H  -1.029778  -2.290538   1.709128
    H  -1.977721  -2.526018  -1.113938
    H  -3.478129  -0.266250  -1.826977
    H  -2.095597   2.329681  -1.692135
    H  -0.946971  -0.108014  -2.876254
    H   1.034136  -1.025238  -2.791941
    H   3.512110  -0.455949  -1.778994
    H   2.086404  -2.809014  -0.653048
    H   0.031467  -2.595586  -0.809395
    H   1.952697   1.910877  -2.029004
    H  -0.042381   2.145872  -1.642782
    C  -0.082672   1.308719  -0.970671
    C   0.081885  -1.563942  -0.510573
