42
19-4
    B  -1.715766   1.178239  -1.119345
    B   0.025654   1.371520  -1.139685
    B   1.771177   1.297059  -1.050462
    B   2.723876  -0.189703  -0.990812
    B  -1.515909  -1.617439  -0.279012
    B   1.751044  -1.599017  -0.724293
    B  -1.072029   1.666071   0.537219
    B   1.029361   1.596248   0.594411
    B  -2.698792   0.921758   0.283560
    B  -2.612617  -0.765024   0.788301
    B  -1.093824  -1.139759   1.523869
    B   0.850924  -1.322540   0.911773
    B   2.605980  -0.850836   0.631429
    B   2.697209   0.881552   0.370642
    B  -0.941093  -0.349461  -1.651669
    B   1.097669  -0.210825  -1.798958
    B  -1.813344   0.496899   1.726120
    B  -0.077856   0.427970   1.688239
    B   1.694617   0.211041   1.631639
    H   2.097339   0.290478   2.737667
    H   0.014938   0.708372   2.833470
    H  -2.280803   0.834459   2.755927
    H  -3.568907  -1.381294   1.098787
    H  -3.726491   1.496396   0.317776
    H  -1.164068   2.807414   0.812810
    H   1.101400   2.690649   1.026498
    H   3.618739   1.554351   0.676187
    H   3.448433  -1.519301   1.121124
    H   0.796080  -2.383694   1.426144
    H  -1.148161  -1.921406   2.401791
    H  -1.911427  -2.676907  -0.614044
    H  -3.281635  -0.547838  -1.475268
    H  -2.265537   1.826763  -1.935856
    H  -1.163867  -0.691414  -2.756868
    H   1.083117  -0.389984  -2.961995
    H   3.665516  -0.340394  -1.689661
    H   2.098973  -2.660559  -1.104826
    H   0.062555  -2.392838  -1.331013
    H   2.205309   2.148187  -1.743916
    H  -0.043093   2.292827  -1.876109
    C  -2.459849  -0.312879  -0.814635
    C   0.113160  -1.429142  -0.836953
