42
19-2
    B  -1.768912   1.626209  -0.995812
    B   1.170921   0.881921  -1.346635
    B   2.358867  -0.420203  -1.117098
    B  -2.323438  -0.014666  -1.209617
    B  -1.196581  -1.384222  -0.843367
    B   1.798008  -1.867446  -0.326938
    B  -1.116138   1.726069   0.767547
    B   0.883371   1.660055   0.622859
    B  -2.691609   0.868893   0.263905
    B  -2.474143  -0.819805   0.318242
    B  -0.911644  -1.316807   1.159128
    B   1.108597  -1.315750   1.329199
    B   2.709533  -0.702049   0.579777
    B   2.461132   0.889966  -0.008900
    B  -0.633838   0.437137  -1.778867
    B   0.647480  -1.051994  -1.485554
    B  -1.748851   0.194032   1.569732
    B  -0.007820   0.318537   1.844656
    B   1.736060   0.411723   1.524974
    H   2.260014   0.765166   2.525229
    H   0.001996   0.523185   3.005583
    H  -2.280878   0.247931   2.622507
    H  -3.357377  -1.577874   0.522043
    H  -3.730959   1.372262   0.512061
    H  -1.230736   2.772090   1.294436
    H   1.147911   2.751802   0.983419
    H   3.312227   1.705821  -0.092036
    H   3.746176  -1.069328   1.007413
    H   1.223258  -2.079798   2.220235
    H  -1.174121  -2.203948   1.894020
    H  -1.533553  -2.309872  -1.502369
    H  -3.091684  -0.248958  -2.074918
    H  -2.223714   2.518889  -1.619673
    H  -0.609225   0.658660  -2.938034
    H   0.577012  -1.669344  -2.490753
    H   3.126235  -0.511062  -2.009892
    H   2.230498  -2.940647  -0.554998
    H   0.035056  -2.962699  -0.036767
    H   1.509833   1.509961  -2.289144
    H   0.036405   2.753892  -1.122476
    C  -0.165836   1.772299  -0.707781
    C   0.190466  -1.894027  -0.011334
