42
19-2
    B  -1.801595   1.525101  -0.969789
    B   1.552255   1.045877  -1.237893
    B   2.596307  -0.366407  -1.028935
    B  -2.582006  -0.074594  -1.081065
    B  -1.571024  -1.469627  -0.700634
    B   1.777191  -1.783040  -0.303137
    B  -1.130201   1.664098   0.730175
    B   0.970470   1.606975   0.482537
    B  -2.737392   0.912847   0.356804
    B  -2.624816  -0.797575   0.528495
    B  -0.968997  -1.294309   1.050430
    B   1.112700  -1.248026   1.295947
    B   2.705369  -0.702374   0.696900
    B   2.626279   0.930273   0.149899
    B  -0.959470   0.112758  -1.738741
    B   1.043905  -0.806366  -1.643402
    B  -1.758107   0.226408   1.646231
    B   0.001746   0.336935   1.743344
    B   1.756555   0.434592   1.601267
    H   2.207362   0.779055   2.633609
    H   0.014726   0.553352   2.901046
    H  -2.208715   0.336451   2.731671
    H  -3.522269  -1.469399   0.897956
    H  -3.712069   1.536392   0.596555
    H  -1.152780   2.755146   1.163352
    H   1.068651   2.756868   0.713494
    H   3.534197   1.679846   0.241036
    H   3.661287  -1.196302   1.186143
    H   1.135901  -2.103056   2.099787
    H  -1.017342  -2.289677   1.673798
    H  -1.934089  -2.477050  -1.185329
    H  -3.438137  -0.250212  -1.875796
    H  -2.189441   2.420044  -1.636027
    H  -0.883006   0.089074  -2.905569
    H   0.989238  -1.227321  -2.735968
    H   3.468857  -0.502616  -1.814802
    H   2.154274  -2.877954  -0.537796
    H   0.032859  -2.678879  -0.741959
    H   1.869264   1.803082  -2.087046
    H  -0.058240   2.309858  -1.506513
    C  -0.149505   1.431154  -0.886602
    C   0.119811  -1.625401  -0.499473
