42
19-2
    B  -1.732315   1.368456  -1.002395
    B   1.759490   1.236232  -1.209811
    B   2.693424  -0.251935  -1.023587
    B  -2.652945  -0.154434  -1.000698
    B  -1.713053  -1.570491  -0.572473
    B   1.751108  -1.648924  -0.469230
    B  -1.156575   1.633414   0.738266
    B   1.029814   1.614761   0.462487
    B  -2.720637   0.942272   0.373761
    B  -2.703735  -0.795603   0.627267
    B  -1.083609  -1.291469   1.153094
    B   1.078089  -1.255890   1.228197
    B   2.695685  -0.736017   0.681912
    B   2.695739   0.952131   0.255088
    B  -0.995824  -0.225650  -1.667732
    B   1.104555  -0.408119  -1.759558
    B  -1.812465   0.274406   1.714791
    B  -0.051280   0.316996   1.738404
    B   1.769620   0.394347   1.639062
    H   2.215061   0.661172   2.686191
    H  -0.053990   0.542115   2.890708
    H  -2.255803   0.430688   2.797297
    H  -3.627220  -1.418571   1.037460
    H  -3.640100   1.653342   0.581326
    H  -1.195597   2.737456   1.118042
    H   1.094578   2.758881   0.675689
    H   3.598062   1.687806   0.447276
    H   3.609657  -1.322107   1.165360
    H   1.117738  -2.153682   1.970398
    H  -1.109624  -2.273576   1.790405
    H  -2.059381  -2.606952  -0.970218
    H  -3.534686  -0.308136  -1.777643
    H  -2.052482   2.235804  -1.748323
    H  -1.030446  -0.359839  -2.842090
    H   1.122044  -0.721619  -2.886368
    H   3.587598  -0.435059  -1.783567
    H   2.093421  -2.728480  -0.791119
    H  -0.007788  -2.580771  -0.863778
    H   2.139478   2.073449  -1.966873
    H  -0.002426   2.043997  -1.835432
    C   0.022575   1.237732  -1.089479
    C   0.014243  -1.542132  -0.508107
