42
19-0
    B  -1.780919   1.277228  -1.161505
    B  -0.033512   1.361126  -1.410256
    B   1.762344   1.220213  -1.054413
    B   2.722269  -0.221962  -1.068204
    B  -2.699006  -0.168487  -1.056111
    B  -1.825087  -1.585298  -0.625748
    B  -0.036372  -1.743939  -0.548815
    B   1.679585  -1.542658  -0.444483
    B  -0.980303   1.720898   0.524568
    B   1.170772   1.708730   0.689796
    B  -1.016141  -1.427203   1.000334
    B   1.156869  -1.262987   1.246102
    B   2.760137  -0.732631   0.701658
    B   2.716808   0.939469   0.338118
    B  -1.095295  -0.329584  -1.775813
    B   0.785736  -0.241879  -1.373665
    B  -1.485064   0.236547   1.322055
    B   0.112908   0.228696   1.921285
    B   1.821165   0.402649   1.767617
    H   2.268103   0.643100   2.832842
    H  -0.005400   0.458363   3.068623
    H  -2.036961   0.424509   2.374135
    H  -3.404858  -1.141467   1.049460
    H  -3.411438   1.443627   0.556495
    H  -1.238851   2.754976   1.023763
    H   1.115047   2.811836   1.100204
    H   3.614522   1.690809   0.547358
    H   3.665464  -1.314671   1.193491
    H   1.162180  -2.131220   2.055366
    H  -1.214046  -2.271931   1.796910
    H  -2.403755  -2.570818  -0.896706
    H  -3.734723  -0.280522  -1.605037
    H  -2.334880   2.097206  -1.810713
    H  -1.235997  -0.564740  -2.927452
    H   0.888319  -0.486249  -2.552297
    H   3.597300  -0.369298  -1.835320
    H   2.130064  -2.577281  -0.794339
    H  -0.159945  -2.855586  -0.932186
    H   2.166688   2.035547  -1.813556
    H  -0.073433   2.212793  -2.215440
    C  -2.542965  -0.730361   0.547833
    C  -2.546329   0.882453   0.243046
