42
19-2
    B  -1.713994   1.392418  -0.997744
    B   1.684196   1.181511  -1.200527
    B   2.652839  -0.264948  -1.005674
    B  -2.621402  -0.123819  -1.020212
    B  -1.653754  -1.531426  -0.600988
    B   1.729808  -1.657255  -0.439612
    B  -1.107296   1.643546   0.737685
    B   0.971619   1.596110   0.483318
    B  -2.696008   0.942646   0.358922
    B  -2.670510  -0.780855   0.602923
    B  -1.038019  -1.296074   1.132261
    B   1.067605  -1.250169   1.227435
    B   2.691312  -0.724595   0.676699
    B   2.656248   0.958789   0.243540
    B  -0.972937  -0.158276  -1.686782
    B   1.055669  -0.509854  -1.700645
    B  -1.781673   0.263292   1.694165
    B  -0.016771   0.321374   1.729014
    B   1.737477   0.398575   1.623335
    H   2.168242   0.687941   2.683119
    H   0.010394   0.537290   2.887570
    H  -2.222727   0.406573   2.779704
    H  -3.587555  -1.408253   1.003722
    H  -3.627085   1.642118   0.561643
    H  -1.105031   2.752922   1.119170
    H   0.999701   2.751730   0.696124
    H   3.555851   1.703825   0.414150
    H   3.618443  -1.283345   1.149939
    H   1.107616  -2.156509   1.973682
    H  -1.072256  -2.274246   1.781828
    H  -2.015774  -2.569495  -1.036369
    H  -3.496451  -0.275610  -1.798913
    H  -2.050318   2.262797  -1.722676
    H  -0.983544  -0.290590  -2.852172
    H   1.035452  -0.837727  -2.824772
    H   3.543613  -0.427594  -1.766029
    H   2.086483  -2.739063  -0.751931
    H   0.010047  -2.580856  -0.849200
    H   2.026828   2.000156  -1.980814
    H  -0.008118   2.040035  -1.756351
    C  -0.011469   1.212994  -1.052981
    C   0.043248  -1.550082  -0.511556
