42
19-2
    B  -1.738787   1.433804  -0.995339
    B   1.622338   1.134437  -1.216558
    B   2.613906  -0.295912  -0.998462
    B  -2.593456  -0.115751  -1.038769
    B  -1.594732  -1.505445  -0.648652
    B   1.710514  -1.692404  -0.396297
    B  -1.087290   1.657291   0.727064
    B   0.947125   1.584551   0.460693
    B  -2.694714   0.925266   0.362451
    B  -2.631348  -0.792137   0.577050
    B  -0.965906  -1.294795   1.098305
    B   1.028704  -1.241751   1.242731
    B   2.674762  -0.717676   0.697248
    B   2.631959   0.950692   0.219046
    B  -0.954670  -0.073180  -1.692260
    B   1.031294  -0.601618  -1.677820
    B  -1.746308   0.256398   1.676544
    B   0.008632   0.321543   1.730455
    B   1.727309   0.409787   1.612095
    H   2.174464   0.714408   2.673407
    H   0.017104   0.543619   2.896985
    H  -2.184043   0.391168   2.763698
    H  -3.535789  -1.431013   0.970132
    H  -3.639357   1.601423   0.589499
    H  -1.088926   2.770413   1.135724
    H   1.006778   2.760265   0.667824
    H   3.538518   1.694159   0.371516
    H   3.604370  -1.257491   1.172949
    H   1.035968  -2.141419   2.017578
    H  -0.986744  -2.291975   1.734448
    H  -1.951194  -2.558295  -1.106334
    H  -3.464428  -0.277528  -1.814716
    H  -2.073113   2.302061  -1.703745
    H  -0.947564  -0.147743  -2.855437
    H   1.009527  -0.970206  -2.798348
    H   3.500760  -0.446844  -1.754866
    H   2.036343  -2.794882  -0.683712
    H   0.038130  -2.557867  -0.822407
    H   1.955785   1.926812  -2.007883
    H  -0.042298   2.099385  -1.662082
    C  -0.070297   1.286109  -1.007360
    C   0.076672  -1.551661  -0.512401
