44
B20C2H22
    B  -0.152821  -3.207500  -0.014617
    B  -1.373522   2.366639   0.014573
    B  -0.345427   2.331734   1.435499
    B   1.329494   2.249078   0.890587
    B   1.324575   2.222005  -0.865128
    B   1.733607   0.718823   0.010185
    B   0.580040   0.770746  -1.605397
    B  -1.321771   0.876427  -0.979772
    B   0.568218   0.794352   1.602326
    B  -1.719521  -0.721227  -0.010328
    B  -0.545863  -0.772372   1.616357
    B   1.333848  -0.875393   0.988436
    B   1.323735  -0.890548  -0.986093
    B  -0.557912  -0.771012  -1.607563
    B   1.384243  -2.387473  -0.007511
    B   0.349674  -2.331583  -1.434202
    B  -1.314662  -2.229482  -0.889404
    B   0.352367  -2.308167   1.411017
    B   0.164573   3.207040   0.018447
    H   0.175600   4.376723  -0.123922
    H  -0.581803   2.719695  -2.199395
    H   2.108885   2.742641  -1.574278
    H  -2.383584   2.960276  -0.111076
    H  -0.674455   2.863638   2.436701
    H   2.222357   2.728796   1.496308
    H   0.895259   0.705016   2.735260
    H   2.913190   0.640104  -0.007461
    H   0.905851   0.790276  -2.738572
    H  -2.273881   0.933722  -1.673449
    H  -2.290133   0.896479   1.672742
    H  -2.897789  -0.669805  -0.009512
    H  -0.951069  -0.788199   2.723699
    H   2.279538  -0.905546   1.697452
    H   2.260216  -0.865205  -1.707721
    H  -0.943496  -0.731751  -2.725359
    H  -2.255591  -2.723664  -1.398193
    H   0.624157  -2.860874  -2.453093
    H   2.413810  -2.965258   0.011677
    H   0.519153  -2.877849   2.429225
    H  -2.010294  -2.586370   1.356153
    H  -0.335152  -4.368443   0.071997
    B  -1.320347   0.866123   0.995821
    C  -0.308366   2.218255  -1.281533
    C  -1.204932  -2.140865   0.789118
