44
B20C2H22
    B  -0.152412  -3.208923  -0.015510
    B  -1.374044   2.368001   0.013301
    B  -0.345323   2.333216   1.436878
    B   1.330857   2.249356   0.891730
    B   1.323437   2.222819  -0.865963
    B   1.733046   0.718479   0.010589
    B   0.579008   0.771122  -1.604543
    B  -1.321471   0.876926  -0.980046
    B   0.567561   0.794323   1.603306
    B  -1.717529  -0.720792  -0.011977
    B  -0.545149  -0.772378   1.615272
    B   1.334463  -0.875922   0.990109
    B   1.322039  -0.891055  -0.986974
    B  -0.557992  -0.771771  -1.607407
    B   1.385543  -2.388200  -0.006944
    B   0.349628  -2.333067  -1.434751
    B  -1.315531  -2.229956  -0.889190
    B   0.353141  -2.309182   1.411642
    B   0.164520   3.208982   0.020149
    H   0.175707   4.379624  -0.115819
    H  -0.583167   2.719518  -2.200800
    H   2.109036   2.742540  -1.574521
    H  -2.385554   2.959744  -0.109843
    H  -0.675852   2.865952   2.437432
    H   2.224513   2.730459   1.495529
    H   0.896163   0.708153   2.736116
    H   2.912454   0.638755  -0.008823
    H   0.904369   0.787320  -2.737765
    H  -2.273176   0.933073  -1.674224
    H  -2.290348   0.899945   1.669731
    H  -2.895701  -0.668211  -0.010896
    H  -0.952125  -0.785411   2.721921
    H   2.279139  -0.904705   1.700398
    H   2.258746  -0.869724  -1.708663
    H  -0.945896  -0.735407  -2.724584
    H  -2.255905  -2.723218  -1.400228
    H   0.622806  -2.863670  -2.453607
    H   2.414843  -2.966877   0.013141
    H   0.521961  -2.878200   2.430086
    H  -2.011747  -2.586259   1.356579
    H  -0.331395  -4.370972   0.066201
    B  -1.319149   0.867511   0.994799
    C  -0.308574   2.220149  -1.281257
    C  -1.204937  -2.142066   0.789426
