44
B20C2H22
    B  -1.642627   0.749408   1.321775
    B  -1.790798  -0.948387   1.362086
    B   1.669495  -0.003148   1.284830
    B   0.468554   1.560238   1.375239
    B  -2.161451   1.281338  -0.397776
    B  -2.738313  -0.227978   0.087490
    B  -1.833168  -1.628243  -0.185990
    B  -0.488594  -2.046666   0.837615
    B   0.905511  -2.245008  -0.248000
    B   2.297195  -1.302623   0.086175
    B   2.543100   0.226974  -0.461958
    B   1.931264   1.566283   0.296192
    B   0.581444   2.459670  -0.119596
    B  -1.004401   2.207038   0.411989
    B   1.416897  -1.002002  -1.423100
    B  -0.376551  -1.495645  -1.324229
    B  -1.696372  -0.281605  -1.385272
    B  -0.549681   1.655872  -1.329168
    B   1.226048   1.283031  -1.358067
    B  -0.113831  -0.203833   1.807914
    H  -0.036439  -0.354450   2.976319
    H   0.646314   2.128807   2.394356
    H  -2.118007   1.181165   2.322869
    H   2.322346   0.018395   2.255132
    H   1.444555  -1.959197   2.036819
    H  -2.323423  -1.429079   2.306615
    H  -0.627940  -3.070757   1.415232
    H  -2.380200  -2.652920  -0.415975
    H  -3.908039  -0.338319  -0.027004
    H  -3.041214   1.974450  -0.782832
    H  -1.504278   3.244332   0.680159
    H   0.838381   3.610366  -0.190365
    H   2.853325   2.258296   0.566478
    H   3.657255   0.379539  -0.822836
    H   3.296059  -1.925489   0.187575
    H   1.108841  -3.406101  -0.295637
    H   1.927584  -1.356680  -2.423195
    H  -0.573410  -2.252112  -2.205456
    H  -2.255480  -0.370909  -2.417626
    H  -0.848477   2.262236  -2.297488
    H   1.728897   1.712818  -2.335075
    H   0.026544   0.079883  -2.912581
    C   0.038270   0.067624  -1.826164
    C   1.085504  -1.405933   1.173465
