44
B20C2H22
    B  -0.172503  -3.228777   0.005029
    B  -1.368168   2.392943  -0.007670
    B  -0.334045   2.340093   1.418999
    B   1.330278   2.256291   0.882339
    B   1.338289   2.255144  -0.887120
    B  -0.344518   2.342660  -1.426676
    B   1.740579   0.755797  -0.016978
    B   0.582383   0.812178  -1.606728
    B  -1.272954   0.878513  -0.989602
    B   0.575287   0.783691   1.558805
    B  -1.740579  -0.755797   0.016978
    B  -0.582383  -0.812178   1.606728
    B   1.272954  -0.878513   0.989602
    B  -0.575287  -0.783691  -1.558805
    B   1.368168  -2.392943   0.007670
    B   0.334045  -2.340093  -1.418999
    B  -1.330278  -2.256291  -0.882339
    B  -1.338289  -2.255144   0.887120
    B   0.344518  -2.342660   1.426676
    B   0.172503   3.228777  -0.005029
    H   0.218044   4.409232   0.005377
    H  -0.672891   2.833103  -2.450545
    H   2.227042   2.714117  -1.516808
    H  -2.450711   2.857641   0.052863
    H  -0.710824   2.769482   2.451022
    H   2.217507   2.685895   1.534377
    H   0.829410   0.714979   2.710291
    H   2.904340   0.570592  -0.044585
    H   0.961327   0.669028  -2.713795
    H  -2.290044   0.874312  -1.590325
    H  -2.060257   0.892033   1.526272
    H  -2.904340  -0.570592   0.044585
    H  -0.961327  -0.669028   2.713795
    H   2.290044  -0.874312   1.590325
    H   2.060257  -0.892033  -1.526272
    H  -0.829410  -0.714979  -2.710291
    H  -2.217507  -2.685895  -1.534377
    H   0.710824  -2.769482  -2.451022
    H   2.450711  -2.857641  -0.052863
    H   0.672891  -2.833103   2.450545
    H  -2.227042  -2.714117   1.516808
    H  -0.218044  -4.409232  -0.005377
    C  -1.184594   0.919448   0.892695
    C   1.184594  -0.919448  -0.892695
