44
B20C2H22
    B  -0.178248  -3.292481  -0.048412
    B  -1.390864   2.491172  -0.020621
    B  -0.379830   2.501583   1.415730
    B   1.327573   2.294542   0.878496
    B   1.338010   2.328974  -0.915722
    B  -0.335634   2.349658  -1.444487
    B   1.731473   0.847693  -0.019140
    B   0.589663   0.812742  -1.541311
    B  -1.242730   0.885021  -0.870801
    B   0.454316   0.901177   1.535640
    B  -1.731473  -0.847693  -0.019140
    B  -0.454316  -0.901177   1.535640
    B   1.242730  -0.885021  -0.870801
    B  -0.589663  -0.812742  -1.541311
    B   1.390864  -2.491172  -0.020621
    B   0.335634  -2.349658  -1.444487
    B  -1.338010  -2.328974  -0.915722
    B  -1.327573  -2.294542   0.878496
    B   0.379830  -2.501583   1.415730
    B   0.178248   3.292481  -0.048412
    H   0.260981   4.472790  -0.041607
    H  -0.681115   2.824142  -2.469047
    H   2.230594   2.777771  -1.547704
    H  -2.465002   2.975201  -0.037061
    H  -0.694852   2.967875   2.451341
    H   2.196479   2.738184   1.544899
    H   0.722280   0.779738   2.675355
    H   2.876506   0.601277   0.101231
    H   0.940073   0.661734  -2.659624
    H  -2.278378   0.918600  -1.442150
    H  -2.024392   0.894917   1.539805
    H  -2.876506  -0.601277   0.101231
    H  -0.722280  -0.779738   2.675355
    H   2.024392  -0.894917   1.539805
    H   2.278378  -0.918600  -1.442150
    H  -0.940073  -0.661734  -2.659624
    H  -2.230594  -2.777771  -1.547704
    H   0.681115  -2.824142  -2.469047
    H   2.465002  -2.975201  -0.037061
    H   0.694852  -2.967875   2.451341
    H  -2.196479  -2.738184   1.544899
    H  -0.260981  -4.472790  -0.041607
    C  -1.167679   1.099425   0.915191
    C   1.167679  -1.099425   0.915191
