44
B20C2H22
    B  -1.371503   2.379780   0.000000
	B  -1.325317   0.882278   0.991200
    B  -0.342977   2.326319   1.418373
    B   1.322277   2.239790   0.876328
    B   1.322277   2.239790  -0.876328
    B  -0.342977   2.326319  -1.418373
    B   1.730542   0.725787   0.000000
    B   0.562842   0.784950  -1.606983
    B  -1.325317   0.882278  -0.991200
    B   0.562842   0.784950   1.606983
    B  -1.730542  -0.725787   0.000000
    B  -0.562842  -0.784950   1.606983
    B   1.325317  -0.882278   0.991200
    B   1.325317  -0.882278  -0.991200
    B  -0.562842  -0.784950  -1.606983
    B   1.371503  -2.379780   0.000000
    B   0.342977  -2.326319  -1.418373
    B  -1.322277  -2.239790  -0.876328
    B  -1.322277  -2.239790   0.876328
    B   0.342977  -2.326319   1.418373
    H   0.220402   4.295707   0.000000
    H  -0.642720   2.870256  -2.426637
    H   2.205058   2.724253  -1.499636
    H  -2.402918   2.961846   0.000000
    H  -0.642720   2.870256   2.426637
    H   2.205058   2.724253   1.499636
    H   0.926653   0.739073   2.733627
    H   2.912230   0.639387   0.000000
    H   0.926653   0.739073  -2.733627
    H  -2.283668   0.903092  -1.687644
    H  -2.283668   0.903092   1.687644
    H  -2.912230  -0.639387   0.000000
    H  -0.926653  -0.739073   2.733627
    H   2.283668  -0.903092   1.687644
    H   2.283668  -0.903092  -1.687644
    H  -0.926653  -0.739073  -2.733627
    H  -2.205058  -2.724253  -1.499636
    H   0.642720  -2.870256  -2.426637
    H   2.402918  -2.961846   0.000000
    H   0.642720  -2.870256   2.426637
    H  -2.205058  -2.724253   1.499636
    H  -0.220402  -4.295707   0.000000
    C  -0.162975  -3.183924   0.000000
    C   0.162975   3.183924   0.000000
