44
B20C2H22
    B  -1.443203   0.884755   1.394038
    B  -1.259774  -1.124325   1.376927
    B   0.647447  -1.564872   1.375898
    B   1.727924   0.181391   1.365719
    B   0.404034   1.681075   1.365777
    B  -2.511310  -0.222763   0.291433
    B  -1.901700  -1.651121  -0.295391
    B   0.990261  -2.359618  -0.253765
    B   2.150498  -1.305895   0.286524
    B   2.540224   0.216273  -0.255184
    B   1.923049   1.680380   0.246236
    B   0.552759   2.455895  -0.285915
    B  -1.008336   2.347248   0.261123
    B   1.484420  -0.883644  -1.366896
    B  -0.356790  -1.656498  -1.392034
    B  -1.687059  -0.121227  -1.375565
    B  -0.675931   1.551837  -1.375067
    B   1.326031   1.121645  -1.369215
    B   0.014789   0.012402   1.972614
    B   0.016077   0.001090  -1.972329
    H  -0.036340   0.019153   3.154012
    H   0.538939   2.386186   2.305244
    H  -2.144599   1.272367   2.259723
    H   2.423173   0.216729   2.321583
    H   0.843080  -2.303433   2.275690
    H  -1.801256  -1.686238   2.261472
    H  -0.799131  -3.329885   0.365817
    H  -2.755269  -2.445983  -0.477125
    H  -3.676366  -0.287571   0.469719
    H  -2.950841   1.741979  -0.359586
    H  -1.545811   3.380714   0.452312
    H   0.766576   3.601190  -0.489034
    H   2.784411   2.464241   0.447271
    H   3.701767   0.288332  -0.461550
    H   3.125788  -1.942600   0.491560
    H   1.360365  -3.465419  -0.436881
    H   2.085434  -1.275532  -2.306676
    H  -0.568177  -2.430633  -2.256720
    H  -2.467286  -0.121338  -2.260218
    H  -1.072685   2.206662  -2.273465
    H   1.832838   1.594914  -2.327071
    H  -0.016726  -0.041457  -3.153650
    C  -2.024626   1.208877  -0.188967
    C  -0.535975  -2.294603   0.192544
