44
B20C2H22
    B  -1.368474   2.367041   0.000000
    B  -0.342391   2.313796   1.414890
    B   1.318631   2.227541   0.874143
    B   1.318631   2.227541  -0.874143
    B  -0.342391   2.313796  -1.414890
    B   1.731625   0.722921   0.000000
    B   0.563073   0.782103  -1.608119
    B  -1.326412   0.879478  -0.991867
    B   0.563073   0.782103   1.608119
    B  -1.731625  -0.722921   0.000000
    B  -0.563073  -0.782103   1.608119
    B   1.326412  -0.879478   0.991867
    B   1.326412  -0.879478  -0.991867
    B  -0.563073  -0.782103  -1.608119
    B   1.368474  -2.367041   0.000000
    B   0.342391  -2.313796  -1.414890
    B  -1.318631  -2.227541  -0.874143
	B  -1.326412   0.879478   0.991867
    B  -1.318631  -2.227541   0.874143
    B   0.342391  -2.313796   1.414890
    H   0.214121   4.172835   0.000000
    H  -0.634240   2.885095  -2.403329
    H   2.185961   2.740550  -1.485159
    H  -2.377612   2.975707   0.000000
    H  -0.634240   2.885095   2.403329
    H   2.185961   2.740550   1.485159
    H   0.926232   0.740426   2.732024
    H   2.910648   0.640830   0.000000
    H   0.926232   0.740426  -2.732024
    H  -2.282181   0.904338  -1.686685
    H  -2.282181   0.904338   1.686685
    H  -2.910648  -0.640830   0.000000
    H  -0.926232  -0.740426   2.732024
    H   2.282181  -0.904338   1.686685
    H   2.282181  -0.904338  -1.686685
    H  -0.926232  -0.740426  -2.732024
    H  -2.185961  -2.740550  -1.485159
    H   0.634240  -2.885095  -2.403329
    H   2.377612  -2.975707   0.000000
    H   0.634240  -2.885095   2.403329
    H  -2.185961  -2.740550   1.485159
    H  -0.214121  -4.172835   0.000000
    C  -0.159185  -3.110561   0.000000
    C   0.159185   3.110561   0.000000
