44
B20C2H22
    B  -1.604767   0.786700   1.336070
    B  -1.685424  -1.001356   1.378474
    B   1.713628   0.059870   1.314158
    B   0.453471   1.617731   1.378431
    B  -2.164912   1.290404  -0.353613
    B  -2.703260  -0.201384   0.133791
    B  -1.879804  -1.641118  -0.204599
    B  -0.510149  -2.251498   0.675560
    B   0.949465  -2.281857  -0.267491
    B   2.275624  -1.329038   0.136075
    B   2.554273   0.236211  -0.403773
    B   1.950231   1.636512   0.275270
    B   0.558427   2.477721  -0.170433
    B  -1.002419   2.254763   0.369551
    B   1.439972  -0.956247  -1.413241
    B  -0.368090  -1.558487  -1.323825
    B  -1.705060  -0.226832  -1.372677
    B  -0.579868   1.624899  -1.335867
    B   1.245375   1.242700  -1.360827
    B  -0.082643  -0.134059   1.867092
    H  -0.042061  -0.233549   3.041636
    H   0.597758   2.233076   2.377223
    H  -2.121476   1.196432   2.316739
    H   2.380205   0.044092   2.295295
    H   1.306698  -2.072418   2.059524
    H  -2.188169  -1.478408   2.333559
    H  -0.654080  -3.322350   1.149635
    H  -2.543924  -2.593882  -0.436239
    H  -3.882418  -0.276167   0.097167
    H  -3.075893   1.964039  -0.689645
    H  -1.493282   3.305147   0.607252
    H   0.782786   3.630150  -0.303385
    H   2.854737   2.360242   0.506250
    H   3.686082   0.358616  -0.721709
    H   3.250347  -1.977253   0.271226
    H   1.251114  -3.417708  -0.340291
    H   1.948485  -1.310822  -2.417478
    H  -0.511584  -2.272864  -2.255502
    H  -2.291999  -0.284345  -2.396249
    H  -0.857957   2.223011  -2.314649
    H   1.731384   1.655972  -2.354981
    H   0.026476   0.064123  -2.888240
    C   0.031107   0.051120  -1.812045
    C   0.962283  -1.491206   1.217714
