44
B20C2H22
    B  -1.513665   0.768135   1.354136
    B  -1.509349  -1.058931   1.342791
    B   1.801351   0.315764   1.340134
    B   0.494233   1.619926   1.355740
    B  -2.196129   1.322381  -0.282078
    B  -2.642254  -0.210864   0.169225
    B  -1.934824  -1.657616  -0.277763
    B  -0.598217  -2.408581   0.395016
    B   0.968748  -2.280854  -0.225032
    B   2.170764  -1.249946   0.358262
    B   2.537927   0.242487  -0.292930
    B   1.981443   1.743471   0.179775
    B   0.573750   2.497399  -0.268748
    B  -0.958683   2.248368   0.342906
    B   1.419185  -0.894134  -1.329364
    B  -0.347632  -1.634244  -1.320943
    B  -1.741162  -0.143272  -1.374542
    B  -0.665972   1.582986  -1.332833
    B   1.300930   1.162796  -1.373011
    B   0.053499  -0.142764   1.877618
    H   0.069769  -0.182358   3.058411
    H   0.589429   2.267796   2.340022
    H  -2.042745   1.160270   2.336252
    H   2.460147   0.252583   2.317432
    H   0.978022  -2.219598   2.100771
    H  -1.925029  -1.573882   2.320700
    H  -0.812297  -3.542152   0.645505
    H  -2.707526  -2.510805  -0.543682
    H  -3.816368  -0.313966   0.260733
    H  -3.144785   1.994167  -0.492576
    H  -1.409495   3.305583   0.619073
    H   0.754361   3.648203  -0.464792
    H   2.872519   2.512932   0.287669
    H   3.686896   0.227206  -0.567331
    H   3.140157  -1.883729   0.585369
    H   1.416221  -3.363581  -0.349713
    H   1.976956  -1.238548  -2.309735
    H  -0.490349  -2.282376  -2.295938
    H  -2.314368  -0.213917  -2.402871
    H  -0.914359   2.165137  -2.330059
    H   1.750580   1.529863  -2.399856
    H  -0.006559   0.015554  -2.843912
    C  -0.010139   0.024044  -1.764463
    C   0.705709  -1.600252   1.255564
