44
B20C2H22
    B  -1.458636   0.866786   1.395475
    B  -1.313947  -1.126103   1.370039
    B   0.663617  -1.554217   1.377657
    B   1.682750   0.150036   1.375982
    B   0.389338   1.688499   1.371416
    B  -2.548329  -0.211446   0.257081
    B  -1.902224  -1.645291  -0.277601
    B  -0.558584  -2.450449   0.279465
    B   1.009738  -2.347552  -0.257328
    B   2.542121   0.210919  -0.268337
    B   1.905236   1.646527   0.272726
    B   0.558753   2.455262  -0.272307
    B  -1.007976   2.342607   0.268597
    B   1.451410  -0.880381  -1.395387
    B  -0.379615  -1.689802  -1.370124
    B  -1.684615  -0.146491  -1.377316
    B  -0.657529   1.554810  -1.375994
    B   1.306412   1.135782  -1.371318
    B  -0.005773   0.004318   1.976027
    B   0.005674  -0.004641  -1.976501
    H  -0.036169   0.022737   3.157888
    H   0.560524   2.383770   2.311785
    H  -2.147677   1.284212   2.257403
    H   2.449757   0.125285   2.272701
    H   1.045657  -2.217776   2.275903
    H  -1.846099  -1.607789   2.309151
    H  -0.804222  -3.589774   0.478568
    H  -2.791911  -2.398537  -0.475234
    H  -3.715386  -0.237131   0.433988
    H  -2.932303   1.765618  -0.384484
    H  -1.533901   3.383328   0.454448
    H   0.798881   3.596584  -0.466400
    H   2.800107   2.394867   0.465509
    H   3.707687   0.236183  -0.455654
    H   2.937006  -1.759849   0.382812
    H   1.534230  -3.390476  -0.434148
    H   2.142892  -1.293748  -2.257282
    H  -0.553527  -2.386592  -2.308873
    H  -2.449980  -0.120807  -2.275466
    H  -1.039816   2.220061  -2.272864
    H   1.839170   1.613710  -2.311959
    H   0.036519  -0.023154  -3.158332
    C  -2.019932   1.213716  -0.197510
    C   2.021363  -1.212928   0.196732
