44
B20C2H22
    B  -0.171125  -3.244972   0.003372
    B  -1.374283   2.417839  -0.003599
    B  -0.338790   2.364833   1.424637
    B   1.331751   2.276816   0.888063
    B   1.339807   2.273340  -0.887975
    B  -0.348971   2.364277  -1.428939
    B   1.739487   0.782514  -0.010084
    B   0.575309   0.838449  -1.606329
    B  -1.245700   0.886554  -0.961893
    B   0.556754   0.793569   1.524672
    B  -1.739487  -0.782514   0.010084
    B  -0.575309  -0.838449   1.606329
    B   1.245700  -0.886554   0.961893
    B  -0.556754  -0.793569  -1.524672
    B   1.374283  -2.417839   0.003599
    B   0.338790  -2.364833  -1.424637
    B  -1.331751  -2.276816  -0.888063
    B  -1.339807  -2.273340   0.887975
    B   0.348971  -2.364277   1.428939
    B   0.171125   3.244972  -0.003372
    H   0.221860   4.425459   0.003341
    H  -0.674896   2.863459  -2.448589
    H   2.228577   2.732279  -1.517879
    H  -2.452459   2.893006   0.037753
    H  -0.695474   2.803772   2.458995
    H   2.215947   2.715206   1.537183
    H   0.812791   0.716780   2.675548
    H   2.899374   0.578672  -0.021373
    H   0.937551   0.678997  -2.715716
    H  -2.262124   0.873381  -1.564140
    H  -2.046160   0.892960   1.514987
    H  -2.899374  -0.578672   0.021373
    H  -0.937551  -0.678997   2.715716
    H   2.262124  -0.873381   1.564140
    H   2.046160  -0.892960  -1.514987
    H  -0.812791  -0.716780  -2.675548
    H  -2.215947  -2.715206  -1.537183
    H   0.695474  -2.803772  -2.458995
    H   2.452459  -2.893006  -0.037753
    H   0.674896  -2.863459   2.448589
    H  -2.228577  -2.732279   1.517879
    H  -0.221860  -4.425459  -0.003341
    C  -1.170857   0.951574   0.883370
    C   1.170857  -0.951574  -0.883370
