44
B20C2H22
    B  -0.165580  -3.237677  -0.004457
    B  -1.370825   2.399946  -0.002548
    B  -0.341045   2.371768   1.425822
    B   1.345305   2.257449   0.878886
    B   1.330937   2.295242  -0.896016
    B  -0.336074   2.344287  -1.430080
    B   1.748979   0.788482  -0.020951
    B   0.578378   0.798809  -1.578488
    B  -1.256301   0.873866  -0.977562
    B   0.576356   0.816989   1.548863
    B  -1.748979  -0.788482  -0.020951
    B  -0.576356  -0.816989   1.548863
    B   1.256301  -0.873866  -0.977562
    B  -0.578378  -0.798809  -1.578488
    B   1.370825  -2.399946  -0.002548
    B   0.336074  -2.344287  -1.430080
    B  -1.330937  -2.295242  -0.896016
    B  -1.345305  -2.257449   0.878886
    B   0.341045  -2.371768   1.425822
    B   0.165580   3.237677  -0.004457
    H   0.212852   4.418029   0.028629
    H  -0.671877   2.854567  -2.440556
    H   2.229740   2.737180  -1.523084
    H  -2.448983   2.874044   0.047874
    H  -0.690120   2.799711   2.467621
    H   2.216567   2.717614   1.530945
    H   0.833393   0.687168   2.690286
    H   2.905128   0.575486   0.052217
    H   0.939496   0.703359  -2.700346
    H  -2.290773   0.903737  -1.546549
    H  -2.029816   0.889528   1.544702
    H  -2.905128  -0.575486   0.052217
    H  -0.833393  -0.687168   2.690286
    H   2.029816  -0.889528   1.544702
    H   2.290773  -0.903737  -1.546549
    H  -0.939496  -0.703359  -2.700346
    H  -2.229740  -2.737180  -1.523084
    H   0.671877  -2.854567  -2.440556
    H   2.448983  -2.874044   0.047874
    H   0.690120  -2.799711   2.467621
    H  -2.216567  -2.717614   1.530945
    H  -0.212852  -4.418029   0.028629
    C  -1.162487   0.944617   0.904791
    C   1.162487  -0.944617   0.904791
