44
B20C2H22
    B  -0.167132  -3.221287   0.006349
    B  -1.383124   2.363894   0.006446
    B  -0.347189   2.281681   1.424903
    B   1.326308   2.223659   0.888236
    B   1.321416   2.232446  -0.864966
    B  -0.349653   2.318673  -1.408609
    B   1.733068   0.711067   0.002801
    B   0.561709   0.775570  -1.605421
    B  -1.330087   0.867468  -0.990840
    B  -1.729798  -0.726587   0.003764
    B  -0.568438  -0.775019   1.624807
    B   1.321985  -0.882473   0.994473
    B   1.324111  -0.881967  -0.989772
    B  -0.563123  -0.784990  -1.605227
    B   1.370858  -2.384322   0.004554
    B   0.343289  -2.327870  -1.420398
    B  -1.324985  -2.244592  -0.872843
    B  -1.327362  -2.243306   0.888538
    B   0.339339  -2.329280   1.431072
    B   0.154257   3.203768   0.029776
    H   0.198743   4.375188   0.078588
    H  -0.665494   2.852448  -2.406278
    H   2.209955   2.705653  -1.470506
    H  -2.425326   2.901648   0.062632
    H  -0.661159   2.730161   2.461677
    H   2.180792   2.664783   1.561913
    H   0.924491   0.810069   2.474431
    H   2.906184   0.620924   0.047023
    H   0.923270   0.731193  -2.725100
    H  -2.307814   0.885210  -1.646517
    H  -2.121070   0.965013   1.482684
    H  -2.905054  -0.611734   0.032484
    H  -0.927474  -0.679583   2.742905
    H   2.260574  -0.873616   1.711659
    H   2.285242  -0.886190  -1.674078
    H  -0.934945  -0.721821  -2.723144
    H  -2.223364  -2.691763  -1.489171
    H   0.646013  -2.844645  -2.433575
    H   2.414082  -2.930447   0.020385
    H   0.636124  -2.831714   2.454494
    H  -2.212875  -2.686271   1.526966
    H  -0.231769  -4.395314   0.018549
    C  -1.319420   0.917518   0.851981
    C   0.644843   0.816757   1.492354
