44
B20C2H22
    B  -0.195909  -3.132095   0.124654
    B  -1.435224   2.275195   0.015322
    B  -0.395270   1.706538   1.448719
    B   1.344044   2.117947   0.927468
    B   1.294018   2.253465  -0.822465
    B  -0.347708   2.339137  -1.360309
    B   1.867776   0.697604  -0.106117
    B   0.564983   0.784086  -1.613592
    B  -1.375345   0.866319  -1.161185
    B  -1.882701  -0.654579  -0.214514
    B  -0.544192  -0.386659   1.654876
    B   1.593013  -0.834694   0.909859
    B   1.334387  -0.891403  -1.057312
    B  -0.534169  -0.796338  -1.662085
    B   1.354942  -2.341872   0.064676
    B   0.323102  -2.352106  -1.358025
    B  -1.339030  -2.203015  -0.804606
    B  -1.298496  -2.039679   0.956724
    B   0.311796  -2.124014   1.476300
    B   0.106741   3.060208   0.154965
    H   0.104702   4.222282   0.357074
    H  -0.640546   2.973629  -2.312387
    H   2.150368   2.829392  -1.396681
    H  -2.376652   2.961901   0.205297
    H  -0.719776   2.093672   2.512066
    H   2.050845   2.709320   1.665672
    H   1.445402   0.626015   2.457409
    H   3.049676   0.672427  -0.066640
    H   0.930938   0.793046  -2.736115
    H  -2.352195   0.947614  -1.823019
    H  -2.592001   0.892155   1.141963
    H  -3.062493  -0.706198  -0.313022
    H  -0.903216  -0.342645   2.777779
    H   2.599335  -0.999795   1.513870
    H   2.245527  -0.939345  -1.811963
    H  -0.832294  -0.784385  -2.807979
    H  -2.258940  -2.708551  -1.349025
    H   0.603772  -2.969235  -2.324385
    H   2.368143  -2.946358   0.142723
    H   0.599407  -2.455990   2.575257
    H  -2.202274  -2.308406   1.672037
    H  -0.286018  -4.305861   0.215671
    C  -1.636163   0.779503   0.644821
    C   0.967694   0.621768   1.486225
