44
B20C2H22
    B  -1.523368   0.765513   1.353355
    B  -1.530933  -1.054148   1.344204
    B   1.807856   0.326038   1.338983
    B   0.501346   1.622154   1.355024
    B  -2.197276   1.323505  -0.282865
    B  -2.652250  -0.209762   0.165553
    B  -1.935246  -1.656600  -0.274072
    B  -0.598591  -2.402219   0.414078
    B   0.970600  -2.285887  -0.227289
    B   2.172670  -1.247570   0.365492
    B   2.537769   0.243580  -0.294315
    B   1.986832   1.747805   0.179772
    B   0.574840   2.499506  -0.263726
    B  -0.955834   2.240308   0.353183
    B   1.415673  -0.893837  -1.331808
    B  -0.347068  -1.628246  -1.321325
    B  -1.738071  -0.144972  -1.374665
    B  -0.661122   1.579590  -1.331019
    B   1.296947   1.163887  -1.373313
    B   0.053027  -0.149366   1.867872
    H   0.069740  -0.189939   3.049001
    H   0.592311   2.263138   2.344530
    H  -2.042298   1.158658   2.340760
    H   2.458767   0.258383   2.321350
    H   0.989386  -2.223699   2.100533
    H  -1.940987  -1.569386   2.324585
    H  -0.807222  -3.536390   0.668483
    H  -2.693749  -2.520172  -0.548437
    H  -3.827548  -0.314746   0.241965
    H  -3.139426   2.001386  -0.502658
    H  -1.408028   3.298168   0.626459
    H   0.748002   3.650756  -0.463634
    H   2.881360   2.514829   0.279625
    H   3.684066   0.218901  -0.579861
    H   3.140852  -1.885629   0.587851
    H   1.414632  -3.369044  -0.357783
    H   1.978374  -1.235925  -2.310359
    H  -0.495365  -2.280609  -2.292891
    H  -2.314056  -0.216173  -2.401606
    H  -0.913904   2.168624  -2.323343
    H   1.749313   1.534186  -2.397977
    H  -0.006941   0.016943  -2.850657
    C  -0.009663   0.024488  -1.771151
    C   0.715274  -1.605345   1.253028
