44
B20C2H22
    B  -0.157176  -3.222452   0.003372
    B  -1.371843   2.382218  -0.000250
    B  -0.345471   2.334182   1.417431
    B   1.322907   2.235517   0.886259
    B   1.319239   2.247181  -0.875646
    B  -0.350450   2.321105  -1.420074
    B   1.729515   0.728146   0.004694
    B   0.560510   0.781552  -1.602664
    B  -1.320976   0.871461  -0.988911
    B   0.566310   0.787805   1.597407
    B  -1.729515  -0.728146   0.004694
    B  -0.566310  -0.787805   1.597407
    B   1.320976  -0.871461  -0.988911
    B  -0.560510  -0.781552  -1.602664
    B   1.371843  -2.382218  -0.000250
    B   0.350450  -2.321105  -1.420074
    B  -1.319239  -2.247181  -0.875646
    B  -1.322907  -2.235517   0.886259
    B   0.345471  -2.334182   1.417431
    B   0.157176   3.222452   0.003372
    H   0.203540   4.397968   0.022024
    H  -0.671147   2.835175  -2.429800
    H   2.210798   2.703924  -1.495941
    H  -2.423783   2.908330   0.028719
    H  -0.673572   2.814417   2.440437
    H   2.197126   2.688672   1.533231
    H   0.887031   0.704857   2.726311
    H   2.901825   0.609274   0.031387
    H   0.929577   0.722003  -2.722136
    H  -2.304541   0.878870  -1.637711
    H  -2.051445   0.954187   1.552273
    H  -2.901825  -0.609274   0.031387
    H  -0.887031  -0.704857   2.726311
    H   2.051445  -0.954187   1.552273
    H   2.304541  -0.878870  -1.637711
    H  -0.929577  -0.722003  -2.722136
    H  -2.210798  -2.703924  -1.495941
    H   0.671147  -2.835175  -2.429800
    H   2.423783  -2.908330   0.028719
    H   0.673572  -2.814417   2.440437
    H  -2.197126  -2.688672   1.533231
    H  -0.203540  -4.397968   0.022024
    C  -1.221856   0.926030   0.929587
    C   1.221856  -0.926030   0.929587
