44
B20C2H22
    B  -1.485654   0.829165   1.349525
    B  -1.403556  -1.101262   1.342590
    B   1.762496   0.235128   1.336995
    B   0.432412   1.642019   1.348578
    B  -2.186042   1.315245  -0.277861
    B  -2.601703  -0.212611   0.222924
    B  -1.940290  -1.660801  -0.273058
    B  -0.595996  -2.449083   0.308133
    B   0.973560  -2.292655  -0.265488
    B   2.183794  -1.274830   0.294580
    B   2.542648   0.241998  -0.280373
    B   1.957679   1.718830   0.227445
    B   0.572497   2.485210  -0.273704
    B  -0.983785   2.316634   0.293838
    B   1.450392  -0.871150  -1.349239
    B  -0.382100  -1.645910  -1.344357
    B  -1.722269  -0.147313  -1.365020
    B  -0.667508   1.576203  -1.344978
    B   1.298370   1.139692  -1.366124
    B   0.024324  -0.056870   1.906362
    H   0.064559  -0.149922   3.082252
    H   0.568616   2.290741   2.328304
    H  -2.042149   1.182827   2.331511
    H   2.417219   0.173721   2.316447
    H   0.917480  -2.132420   2.081811
    H  -1.812089  -1.616700   2.321897
    H  -0.777390  -3.576709   0.603451
    H  -2.754942  -2.488642  -0.493521
    H  -3.767050  -0.312367   0.393438
    H  -3.166258   1.941985  -0.485211
    H  -1.436950   3.381798   0.529984
    H   0.804664   3.625901  -0.477716
    H   2.839995   2.485156   0.404191
    H   3.703428   0.263284  -0.503201
    H   3.124238  -1.926280   0.582216
    H   1.430120  -3.376310  -0.333880
    H   1.992967  -1.220111  -2.337367
    H  -0.510959  -2.282010  -2.330030
    H  -2.317772  -0.209417  -2.381820
    H  -0.911289   2.146037  -2.350190
    H   1.755252   1.526035  -2.383215
    H  -0.002980   0.003015  -2.847058
    C  -0.003192   0.006577  -1.766165
    C   0.655904  -1.523148   1.224032
