44
B20C2H22
    B  -1.458531   0.868539   1.393794
    B  -1.310571  -1.128327   1.370030
    B   0.661769  -1.553085   1.375865
    B   1.681201   0.150393   1.374396
    B   0.391614   1.686232   1.371644
    B  -2.549870  -0.211754   0.259106
    B  -1.903336  -1.645100  -0.275069
    B  -0.557824  -2.451524   0.276592
    B   1.010489  -2.349359  -0.258737
    B   2.544527   0.211371  -0.269072
    B   1.906084   1.646275   0.270568
    B   0.557901   2.455612  -0.270212
    B  -1.009016   2.344928   0.268671
    B   1.452178  -0.880112  -1.392913
    B  -0.382705  -1.687524  -1.370467
    B  -1.682733  -0.147169  -1.375488
    B  -0.656461   1.553521  -1.374488
    B   1.303697   1.136665  -1.371441
    B  -0.008314   0.005636   1.974739
    B   0.008314  -0.006167  -1.974895
    H  -0.037386   0.022737   3.156516
    H   0.561199   2.380895   2.312600
    H  -2.147066   1.285857   2.255960
    H   2.445630   0.125413   2.273208
    H   1.042503  -2.214590   2.276065
    H  -1.841818  -1.608765   2.310145
    H  -0.804577  -3.590737   0.474395
    H  -2.792740  -2.398966  -0.470956
    H  -3.716402  -0.232006   0.438867
    H  -2.930279   1.763922  -0.388424
    H  -1.539589   3.382714   0.456414
    H   0.799769   3.596661  -0.463234
    H   2.799821   2.396098   0.462241
    H   3.709640   0.230804  -0.458542
    H   2.934465  -1.758564   0.386927
    H   1.539864  -3.389103  -0.438357
    H   2.141945  -1.292681  -2.256380
    H  -0.554894  -2.383174  -2.310215
    H  -2.445583  -0.121306  -2.275660
    H  -1.037668   2.216497  -2.273397
    H   1.836612   1.612856  -2.312716
    H   0.037560  -0.023585  -3.156642
    C  -2.018219   1.212411  -0.200438
    C   2.019488  -1.211753   0.199931
