44
B20C2H22
    B  -1.448076   0.879138   1.387425
    B  -1.263358  -1.104100   1.366122
    B   0.657945  -1.560740   1.371636
    B   1.722936   0.166607   1.362028
    B   0.390994   1.679899   1.363280
    B  -2.486959  -0.207035   0.278376
    B  -1.869773  -1.644511  -0.287864
    B   0.962638  -2.339359  -0.256701
    B   2.158023  -1.313829   0.280715
    B   2.531272   0.212713  -0.263535
    B   1.915993   1.676370   0.249332
    B   0.552315   2.467481  -0.279711
    B  -1.010731   2.311934   0.270383
    B   1.471779  -0.896927  -1.365077
    B  -0.355931  -1.655794  -1.388234
    B  -1.674589  -0.135316  -1.370708
    B  -0.666981   1.556640  -1.369076
    B   1.311560   1.132383  -1.367684
    B   0.015792   0.008009   1.967271
    B   0.015511   0.006404  -1.969835
    H  -0.025288   0.007889   3.147143
    H   0.520313   2.379638   2.305463
    H  -2.123760   1.251969   2.276870
    H   2.417625   0.215417   2.316149
    H   0.858919  -2.278170   2.285143
    H  -1.811100  -1.630092   2.266430
    H  -0.811707  -3.363514   0.387851
    H  -2.741113  -2.417791  -0.470065
    H  -3.648806  -0.301834   0.455636
    H  -2.983155   1.759603  -0.371109
    H  -1.527457   3.355916   0.460743
    H   0.759944   3.611519  -0.480146
    H   2.782691   2.451309   0.452755
    H   3.689877   0.292625  -0.474311
    H   3.129596  -1.951561   0.484209
    H   1.353880  -3.438787  -0.433494
    H   2.066773  -1.288605  -2.306711
    H  -0.560251  -2.409417  -2.269776
    H  -2.438272  -0.156253  -2.267013
    H  -1.045919   2.201769  -2.280003
    H   1.828045   1.595704  -2.323647
    H  -0.014588  -0.022157  -3.149761
    C  -2.061238   1.232035  -0.199120
    C  -0.544681  -2.336497   0.209554
