44
B20C2H22
    B  -1.483026   0.862717   1.362232
    B  -1.321758  -1.125186   1.359632
    B   1.730792   0.161086   1.355440
    B   0.404239   1.664463   1.362080
    B  -2.174949   1.305364  -0.275342
    B  -2.549803  -0.217056   0.249915
    B  -1.916591  -1.656385  -0.266998
    B  -0.575924  -2.451493   0.279495
    B   0.981694  -2.311925  -0.259814
    B   2.171364  -1.291124   0.267533
    B   2.520924   0.228896  -0.276240
    B   1.925229   1.678984   0.254822
    B   0.571276   2.473495  -0.266276
    B  -0.990501   2.327951   0.274889
    B   1.446137  -0.874657  -1.349994
    B  -0.378066  -1.645470  -1.346355
    B  -1.699528  -0.146942  -1.360026
    B  -0.660315   1.566115  -1.354394
    B   1.277482   1.126080  -1.360794
    B   0.009306  -0.017836   1.940830
    H   0.030128  -0.062118   3.120251
    H   0.567569   2.334991   2.321441
    H  -2.078971   1.215709   2.319796
    H   2.429926   0.173161   2.306175
    H   0.913840  -2.126918   2.154223
    H  -1.817409  -1.615993   2.311789
    H  -0.805174  -3.585099   0.514507
    H  -2.770617  -2.442850  -0.482348
    H  -3.712110  -0.321062   0.437629
    H  -3.166466   1.909632  -0.492371
    H  -1.447602   3.397147   0.485467
    H   0.828192   3.607080  -0.476648
    H   2.809733   2.438780   0.448238
    H   3.678525   0.303176  -0.497059
    H   3.148366  -1.912936   0.494212
    H   1.434667  -3.388971  -0.419047
    H   2.028352  -1.242893  -2.308277
    H  -0.519454  -2.322510  -2.302592
    H  -2.359644  -0.213741  -2.336994
    H  -0.923889   2.181068  -2.327794
    H   1.784920   1.555256  -2.337083
    H   0.000576  -0.005886  -2.944614
    C  -0.002566   0.002843  -1.879953
    C   0.661813  -1.534262   1.301349
