44
B20C2H22
    B  -1.567599   0.794173   1.344672
    B  -1.609123  -1.041497   1.364850
    B   1.727094   0.131645   1.303802
    B   0.496619   1.621991   1.368524
    B  -2.160821   1.288289  -0.317114
    B  -2.678407  -0.226559   0.146397
    B  -1.897262  -1.662849  -0.237821
    B  -0.551211  -2.320415   0.575282
    B   0.944714  -2.260459  -0.264228
    B   2.230580  -1.281971   0.198698
    B   2.535049   0.239212  -0.354385
    B   1.971597   1.677673   0.253666
    B   0.578943   2.470462  -0.189571
    B  -0.987286   2.263035   0.370165
    B   1.437539  -0.919407  -1.389332
    B  -0.386230  -1.589498  -1.322316
    B  -1.700041  -0.219062  -1.379575
    B  -0.605494   1.601006  -1.332712
    B   1.263160   1.208888  -1.362379
    B  -0.039285  -0.119621   1.859091
    H  -0.007944  -0.200639   3.037281
    H   0.639624   2.246350   2.361672
    H  -2.086403   1.195218   2.330280
    H   2.361825   0.066849   2.295323
    H   1.182127  -2.056940   2.084718
    H  -2.079037  -1.524008   2.336047
    H  -0.726649  -3.414093   0.986423
    H  -2.609457  -2.575933  -0.480423
    H  -3.857245  -0.308550   0.152532
    H  -3.085901   1.960494  -0.619142
    H  -1.466607   3.317587   0.604066
    H   0.789126   3.621691  -0.354720
    H   2.866362   2.426294   0.444666
    H   3.676918   0.320124  -0.648437
    H   3.205748  -1.926921   0.356839
    H   1.308517  -3.378436  -0.347685
    H   1.974881  -1.278678  -2.375392
    H  -0.528352  -2.283718  -2.266290
    H  -2.290827  -0.274596  -2.399081
    H  -0.877716   2.198871  -2.313659
    H   1.737718   1.619175  -2.361827
    H   0.012556   0.046902  -2.884112
    C   0.015148   0.031797  -1.804260
    C   0.843742  -1.483199   1.230401
