44
B20C2H22
    B  -1.544106   0.760169   1.349818
    B  -1.574130  -1.044564   1.345194
    B   1.816676   0.329940   1.333969
    B   0.515753   1.626770   1.354417
    B  -2.193479   1.319844  -0.284020
    B  -2.668709  -0.210748   0.155555
    B  -1.930811  -1.655415  -0.264640
    B  -0.594686  -2.386546   0.458716
    B   0.970041  -2.289950  -0.234516
    B   2.178775  -1.247656   0.369516
    B   2.536225   0.243278  -0.299785
    B   1.996214   1.749768   0.182056
    B   0.576630   2.497998  -0.249161
    B  -0.953072   2.227801   0.372920
    B   1.411118  -0.894140  -1.339982
    B  -0.348784  -1.616087  -1.322962
    B  -1.729358  -0.153553  -1.374579
    B  -0.649945   1.575662  -1.326972
    B   1.289071   1.167632  -1.372123
    B   0.046032  -0.158092   1.853521
    H   0.061989  -0.200371   3.035033
    H   0.602352   2.260325   2.349539
    H  -2.051399   1.153047   2.343984
    H   2.453835   0.252635   2.324710
    H   1.024243  -2.224933   2.102279
    H  -1.978305  -1.555523   2.330658
    H  -0.794739  -3.519654   0.727730
    H  -2.663587  -2.538007  -0.549524
    H  -3.846112  -0.314144   0.197555
    H  -3.122418   2.008347  -0.525411
    H  -1.410757   3.287111   0.632217
    H   0.737458   3.649689  -0.455514
    H   2.894307   2.514536   0.268967
    H   3.677505   0.212214  -0.604639
    H   3.146158  -1.892900   0.576664
    H   1.403090  -3.376691  -0.369413
    H   1.974353  -1.235069  -2.318565
    H  -0.500884  -2.275660  -2.289108
    H  -2.313242  -0.216351  -2.397795
    H  -0.911828   2.177894  -2.308919
    H   1.743242   1.552119  -2.390918
    H  -0.007967   0.026128  -2.859990
    C  -0.006708   0.024480  -1.780157
    C   0.740648  -1.610653   1.254609
