44
B20C2H22
    B  -0.175927  -3.266655  -0.019749
    B  -1.375784   2.446130  -0.001317
    B  -0.356691   2.422102   1.419595
    B   1.338097   2.271885   0.878868
    B   1.338544   2.318378  -0.908403
    B  -0.339400   2.355801  -1.438179
    B   1.752803   0.826875  -0.032715
    B   0.583982   0.815265  -1.562519
    B  -1.241964   0.879874  -0.915339
    B   0.518557   0.842523   1.526797
    B  -1.752803  -0.826875  -0.032715
    B  -0.518557  -0.842523   1.526797
    B   1.241964  -0.879874  -0.915339
    B  -0.583982  -0.815265  -1.562519
    B   1.375784  -2.446130  -0.001317
    B   0.339400  -2.355801  -1.438179
    B  -1.338544  -2.318378  -0.908403
    B  -1.338097  -2.271885   0.878868
    B   0.356691  -2.422102   1.419595
    B   0.175927   3.266655  -0.019749
    H   0.235487   4.447273   0.008388
    H  -0.685485   2.848399  -2.453555
    H   2.230535   2.772618  -1.537413
    H  -2.456183   2.916492   0.028114
    H  -0.687809   2.858377   2.463911
    H   2.205591   2.710018   1.551037
    H   0.788792   0.730033   2.667235
    H   2.900506   0.582253   0.059311
    H   0.928425   0.684716  -2.685313
    H  -2.274758   0.911592  -1.489420
    H  -2.014155   0.868229   1.538207
    H  -2.900506  -0.582253   0.059311
    H  -0.788792  -0.730033   2.667235
    H   2.014155  -0.868229   1.538207
    H   2.274758  -0.911592  -1.489420
    H  -0.928425  -0.684716  -2.685313
    H  -2.230535  -2.772618  -1.537413
    H   0.685485  -2.848399  -2.453555
    H   2.456183  -2.916492   0.028114
    H   0.687809  -2.858377   2.463911
    H  -2.205591  -2.710018   1.551037
    H  -0.235487  -4.447273   0.008388
    C  -1.150463   1.011721   0.902461
    C   1.150463  -1.011721   0.902461
