44
B20C2H22
    B  -0.177575  -3.291092  -0.046906
    B  -1.391928   2.489581  -0.019150
    B  -0.380097   2.498672   1.415506
    B   1.327323   2.292186   0.878505
    B   1.337562   2.327776  -0.916099
    B  -0.336850   2.349416  -1.443667
    B   1.731150   0.846042  -0.020002
    B   0.588672   0.811295  -1.545100
    B  -1.244676   0.884830  -0.871418
    B   0.455790   0.900082   1.535281
    B  -1.731150  -0.846042  -0.020002
    B  -0.455790  -0.900082   1.535281
    B   1.244676  -0.884830  -0.871418
    B  -0.588672  -0.811295  -1.545100
    B   1.391928  -2.489581  -0.019150
    B   0.336850  -2.349416  -1.443667
    B  -1.337562  -2.327776  -0.916099
    B  -1.327323  -2.292186   0.878505
    B   0.380097  -2.498672   1.415506
    B   0.177575   3.291092  -0.046906
    H   0.261386   4.471271  -0.040288
    H  -0.681646   2.826552  -2.467269
    H   2.230142   2.776884  -1.547745
    H  -2.465325   2.975169  -0.033265
    H  -0.693696   2.965582   2.451282
    H   2.196391   2.737135   1.543820
    H   0.723348   0.777990   2.675011
    H   2.875874   0.598967   0.101490
    H   0.940427   0.662376  -2.663256
    H  -2.280271   0.916976  -1.443073
    H  -2.023618   0.894904   1.541239
    H  -2.875874  -0.598967   0.101490
    H  -0.723348  -0.777990   2.675011
    H   2.023618  -0.894904   1.541239
    H   2.280271  -0.916976  -1.443073
    H  -0.940427  -0.662376  -2.663256
    H  -2.230142  -2.776884  -1.547745
    H   0.681646  -2.826552  -2.467269
    H   2.465325  -2.975169  -0.033265
    H   0.693696  -2.965582   2.451282
    H  -2.196391  -2.737135   1.543820
    H  -0.261386  -4.471271  -0.040288
    C  -1.167060   1.096108   0.915102
    C   1.167060  -1.096108   0.915102
