44
B20C2H22
    B  -1.386675   2.384406   0.004057
    B  -0.352873   2.330354   1.430843
    B   1.313296   2.228078   0.886643
    B  -0.354559   2.313814  -1.413967
    B   1.727504   0.717214   0.018690
    B   0.545758   0.777853  -1.611483
    B  -1.329036   0.876015  -0.991981
    B   0.560016   0.778244   1.610027
    B  -1.741009  -0.716515  -0.005575
    B  -0.561839  -0.777540   1.620190
	B  -1.327364   0.885753   0.995125
    B   1.327241  -0.883538   0.999359
    B   1.332905  -0.871523  -0.998990
    B  -0.568766  -0.784804  -1.609995
    B   1.377640  -2.359219   0.000071
    B   0.345318  -2.304772  -1.423116
    B  -1.322413  -2.222502  -0.878797
    B  -1.321932  -2.214257   0.878131
    B   0.346669  -2.308613   1.420501
    B   0.147789   3.206403   0.011795
    H   0.334111   4.366446  -0.079856
    H  -0.520155   2.877875  -2.435524
    H   2.005549   2.586330  -1.359380
    H  -2.417912   2.959152  -0.018722
    H  -0.631344   2.867811   2.444713
    H   2.251969   2.735437   1.387251
    H   0.944783   0.738571   2.727632
    H   2.906114   0.690115  -0.017155
    H   0.944644   0.789144  -2.721391
    H  -2.272397   0.903705  -1.704666
    H  -2.284014   0.885172   1.689856
    H  -2.920833  -0.635221  -0.009880
    H  -0.920702  -0.737512   2.746409
    H   2.306015  -0.882107   1.663249
    H   2.289474  -0.895004  -1.694567
    H  -0.895557  -0.717749  -2.744702
    H  -2.155595  -2.814742  -1.465036
    H   0.626970  -2.947622  -2.369352
    H   2.341261  -3.036947  -0.007994
    H   0.623256  -2.957069   2.364735
    H  -2.155573  -2.809533   1.460490
    H  -0.207353  -4.119708  -0.002867
    C  -0.152029  -3.040396  -0.002115
    C   1.201650   2.139003  -0.792656
