44
B20C2H22
    B  -0.205807  -3.108389   0.143949
    B  -1.444705   2.260017   0.030387
    B  -0.391318   1.688737   1.467032
    B   1.352300   2.117223   0.940778
    B   1.287254   2.263748  -0.813982
    B  -0.348472   2.347292  -1.346427
    B   1.824952   0.692764  -0.094220
    B   0.559747   0.777172  -1.597888
    B  -1.348375   0.855049  -1.126579
    B  -1.954060  -0.671058  -0.297259
    B  -0.552371  -0.337771   1.647092
    B   1.684641  -0.857557   0.885999
    B   1.346582  -0.905357  -1.086993
    B  -0.528605  -0.809308  -1.696885
    B   1.353861  -2.331653   0.066372
    B   0.319267  -2.356804  -1.352381
    B  -1.343189  -2.193489  -0.810688
    B  -1.299429  -1.978999   0.946477
    B   0.307535  -2.061279   1.468931
    B   0.097617   3.044827   0.177951
    H   0.084322   4.204071   0.400387
    H  -0.647036   2.981092  -2.296765
    H   2.143732   2.838692  -1.388339
    H  -2.408578   2.919032   0.204268
    H  -0.721922   2.044104   2.538221
    H   2.085888   2.689713   1.667228
    H   1.490767   0.605169   2.445539
    H   3.010278   0.677166  -0.064372
    H   0.926253   0.803453  -2.720027
    H  -2.320444   0.950126  -1.799059
    H  -2.579406   0.812972   1.119735
    H  -3.133366  -0.690406  -0.385634
    H  -0.913312  -0.271988   2.768486
    H   2.683686  -0.988842   1.505410
    H   2.251707  -0.949928  -1.847255
    H  -0.814857  -0.793088  -2.844515
    H  -2.247541  -2.739809  -1.344435
    H   0.595178  -3.001737  -2.302288
    H   2.343969  -2.975162   0.148730
    H   0.573550  -2.370800   2.580476
    H  -2.194104  -2.228594   1.680871
    H  -0.302000  -4.279896   0.255340
    C  -1.613153   0.730845   0.639509
    C   0.988964   0.598652   1.486823
