44
B20C2H22
    B  -1.439715   0.835382   1.435295
    B  -1.272155  -1.104405   1.378174
    B   0.671565  -1.599472   1.367249
    B   1.728447   0.180553   1.361478
    B   0.439268   1.677586   1.373456
    B  -1.915198  -1.637735  -0.304127
    B  -0.585838  -2.452568   0.265613
    B   0.996104  -2.364134  -0.231106
    B   2.179572  -1.306691   0.273313
    B   2.530929   0.220116  -0.278553
    B   1.930685   1.688232   0.229335
    B   0.547176   2.462070  -0.264795
    B  -1.004305   2.310545   0.306310
    B   1.472683  -0.920054  -1.364349
    B  -0.341464  -1.700017  -1.373020
    B  -1.662574  -0.118946  -1.432415
    B  -0.660434   1.551101  -1.376987
    B   1.301554   1.145658  -1.368799
    B   0.036260   0.004071   1.977264
    B   0.027876  -0.019167  -1.976608
    H  -0.028345   0.025202   3.158856
    H   0.537443   2.391653   2.311051
    H  -2.209859   1.208688   2.244050
    H   2.427832   0.242362   2.313316
    H   0.893851  -2.251225   2.329070
    H  -1.930600  -1.531069   2.259738
    H  -0.937247  -3.565921   0.454979
    H  -2.869963  -2.303541  -0.502107
    H  -3.421114  -0.253525   0.377285
    H  -2.965118   1.726256  -0.373537
    H  -1.570612   3.327195   0.505919
    H   0.718767   3.617099  -0.452836
    H   2.795938   2.471391   0.416306
    H   3.687326   0.313320  -0.506582
    H   3.179210  -1.896300   0.499237
    H   1.430055  -3.447488  -0.418055
    H   2.072519  -1.281229  -2.317583
    H  -0.567553  -2.384409  -2.310672
    H  -2.519259  -0.117417  -2.240283
    H  -1.067585   2.222959  -2.257638
    H   1.785920   1.634088  -2.331132
    H  -0.041282  -0.009613  -3.158107
    C  -2.026730   1.214049  -0.209968
    C  -2.353340  -0.203971   0.212895
