44
B20C2H22
    B  -0.174078  -3.248558   0.005389
    B  -1.374405   2.424129  -0.003024
    B  -0.339303   2.371023   1.424895
    B   1.331473   2.278915   0.889707
    B   1.340914   2.274836  -0.888787
    B  -0.350411   2.366492  -1.429253
    B   1.738457   0.787908  -0.008128
    B   0.573572   0.844175  -1.606157
    B  -1.246476   0.888215  -0.954552
    B   0.549460   0.795499   1.523234
    B  -1.738457  -0.787908   0.008128
    B  -0.573572  -0.844175   1.606157
    B   1.246476  -0.888215   0.954552
    B  -0.549460  -0.795499  -1.523234
    B   1.374405  -2.424129   0.003024
    B   0.339303  -2.371023  -1.424895
    B  -1.331473  -2.278915  -0.889707
    B  -1.340914  -2.274836   0.888787
    B   0.350411  -2.366492   1.429253
    B   0.174078   3.248558  -0.005389
    H   0.227433   4.429059  -0.000398
    H  -0.680211   2.863938  -2.448600
    H   2.230154   2.732492  -1.518961
    H  -2.453724   2.896995   0.036396
    H  -0.694649   2.807444   2.460828
    H   2.214099   2.715536   1.542271
    H   0.805637   0.717955   2.673980
    H   2.897897   0.581619  -0.023554
    H   0.939922   0.681268  -2.713696
    H  -2.262724   0.873883  -1.556980
    H  -2.045005   0.889938   1.515655
    H  -2.897897  -0.581619   0.023554
    H  -0.939922  -0.681268   2.713696
    H   2.262724  -0.873883   1.556980
    H   2.045005  -0.889938  -1.515655
    H  -0.805637  -0.717955  -2.673980
    H  -2.214099  -2.715536  -1.542271
    H   0.694649  -2.807444  -2.460828
    H   2.453724  -2.896995  -0.036396
    H   0.680211  -2.863938   2.448600
    H  -2.230154  -2.732492   1.518961
    H  -0.227433  -4.429059   0.000398
    C  -1.171003   0.960461   0.884280
    C   1.171003  -0.960461  -0.884280
