44
B20C2H22
    B  -1.559384   0.755663   1.347153
    B  -1.605420  -1.037198   1.345116
    B   1.822622   0.330855   1.330181
    B   0.526556   1.629621   1.354336
    B  -2.190350   1.316671  -0.284879
    B  -2.680663  -0.211895   0.147583
    B  -1.926924  -1.654361  -0.257561
    B  -0.590989  -2.372669   0.491970
    B   0.968658  -2.291697  -0.239350
    B   2.183065  -1.247964   0.371783
    B   2.534840   0.242776  -0.304085
    B   2.002853   1.750549   0.183943
    B   0.577805   2.496247  -0.237928
    B  -0.951372   2.218378   0.387533
    B   1.407759  -0.894679  -1.345993
    B  -0.350341  -1.606880  -1.324052
    B  -1.723045  -0.160238  -1.374723
    B  -0.641656   1.573086  -1.324062
    B   1.283192   1.170552  -1.371243
    B   0.040393  -0.164651   1.842821
    H   0.055558  -0.208166   3.024586
    H   0.610480   2.257920   2.353285
    H  -2.058628   1.147978   2.346036
    H   2.450064   0.246353   2.326553
    H   1.051423  -2.224237   2.103249
    H  -2.005859  -1.544620   2.334211
    H  -0.785196  -3.504623   0.772106
    H  -2.640491  -2.550666  -0.549130
    H  -3.858947  -0.313978   0.163832
    H  -3.109133   2.012889  -0.542123
    H  -1.413146   3.278582   0.636358
    H   0.729710   3.648197  -0.448624
    H   2.903091   2.513970   0.261629
    H   3.672229   0.208259  -0.622981
    H   3.149963  -1.898225   0.566906
    H   1.392896  -3.381369  -0.376675
    H   1.971091  -1.235676  -2.324413
    H  -0.504648  -2.272624  -2.285610
    H  -2.312635  -0.216613  -2.395148
    H  -0.910148   2.184796  -2.298253
    H   1.738668   1.565459  -2.385558
    H  -0.008721   0.033215  -2.866437
    C  -0.004574   0.024581  -1.786923
    C   0.760043  -1.612888   1.255514
