44
B20C2H22
    B  -0.175323  -3.251498   0.006194
    B  -1.373888   2.430298  -0.003565
    B  -0.338609   2.377024   1.424605
    B   1.331121   2.280448   0.890519
    B   1.340904   2.275591  -0.888783
    B  -0.351228   2.368191  -1.429219
    B   1.737860   0.791348  -0.005201
    B   0.570900   0.848367  -1.607036
    B  -1.247436   0.890182  -0.949772
    B   0.544524   0.797563   1.522701
    B  -1.737860  -0.791348   0.005201
    B  -0.570900  -0.848367   1.607036
    B   1.247436  -0.890182   0.949772
    B  -0.544524  -0.797563  -1.522701
    B   1.373888  -2.430298   0.003565
    B   0.338609  -2.377024  -1.424605
    B  -1.331121  -2.280448  -0.890519
    B  -1.340904  -2.275591   0.888783
    B   0.351228  -2.368191   1.429219
    B   0.175323   3.251498  -0.006194
    H   0.229287   4.431985  -0.001341
    H  -0.680770   2.865927  -2.448549
    H   2.230186   2.733550  -1.518683
    H  -2.454451   2.900016   0.037210
    H  -0.695609   2.810413   2.461172
    H   2.214128   2.717154   1.542553
    H   0.799039   0.718441   2.673559
    H   2.896811   0.583039  -0.023875
    H   0.939984   0.682544  -2.713126
    H  -2.264463   0.874016  -1.550555
    H  -2.042168   0.890582   1.513806
    H  -2.896811  -0.583039   0.023875
    H  -0.939984  -0.682544   2.713126
    H   2.264463  -0.874016   1.550555
    H   2.042168  -0.890582  -1.513806
    H  -0.799039  -0.718441  -2.673559
    H  -2.214128  -2.717154  -1.542553
    H   0.695609  -2.810413  -2.461172
    H   2.454451  -2.900016  -0.037210
    H   0.680770  -2.865927   2.448549
    H  -2.230186  -2.733550   1.518683
    H  -0.229287  -4.431985   0.001341
    C  -1.168819   0.962989   0.882334
    C   1.168819  -0.962989  -0.882334
