44
B20C2H22
    B  -1.472859   0.868984   1.368374
    B  -1.302274  -1.114646   1.367612
    B   0.685766  -1.586541   1.366042
    B   1.721021   0.149913   1.362402
    B   0.391850   1.675077   1.366782
    B  -1.919407  -1.646031  -0.268005
    B  -0.577217  -2.463421   0.275267
    B   0.991830  -2.344780  -0.257049
    B   2.186773  -1.311723   0.259817
    B   2.532967   0.221566  -0.275391
    B   1.917924   1.670300   0.259764
    B   0.560871   2.474913  -0.259399
    B  -1.004285   2.317250   0.274830
    B   1.474543  -0.898000  -1.366994
    B  -0.381626  -1.675001  -1.363381
    B  -1.705486  -0.143719  -1.370387
    B  -0.669520   1.575055  -1.364715
    B   1.296340   1.138334  -1.365871
    B   0.006234  -0.002111   1.960247
    B   0.002130  -0.000303  -1.959957
    H  -0.005802   0.002436   3.145508
    H   0.534348   2.373444   2.314549
    H  -2.104688   1.238337   2.297817
    H   2.428484   0.216525   2.312370
    H   0.950947  -2.243416   2.317817
    H  -1.859964  -1.572709   2.306835
    H  -0.863524  -3.595111   0.485285
    H  -2.815309  -2.396058  -0.469991
    H  -3.597862  -0.289419   0.424677
    H  -3.096458   1.841516  -0.443598
    H  -1.488815   3.379522   0.482313
    H   0.797888   3.620049  -0.457033
    H   2.795517   2.442738   0.462139
    H   3.695703   0.327755  -0.488084
    H   3.190612  -1.911751   0.461395
    H   1.433629  -3.427692  -0.456747
    H   2.079097  -1.264961  -2.319476
    H  -0.559797  -2.367957  -2.309119
    H  -2.435479  -0.194935  -2.299852
    H  -0.975367   2.230185  -2.302933
    H   1.823821   1.611416  -2.317479
    H  -0.011922   0.002049  -3.145207
    C  -2.149764   1.282829  -0.257169
    C  -2.500182  -0.209226   0.246929
