44
B20C2H22
    B  -1.461484   0.863694   1.390721
    B  -1.316299  -1.115745   1.369921
    B   0.674265  -1.552345   1.375551
    B   1.684417   0.141190   1.373015
    B   0.377778   1.686973   1.367260
    B  -2.531352  -0.199791   0.253971
    B  -1.898737  -1.641655  -0.279359
    B  -0.557700  -2.446199   0.284510
    B   1.011950  -2.328457  -0.255377
    B   2.524515   0.199221  -0.268028
    B   1.902022   1.643518   0.275398
    B   0.558168   2.452603  -0.274513
    B  -1.009589   2.322084   0.268000
    B   1.450641  -0.881569  -1.395539
    B  -0.368358  -1.687858  -1.365673
    B  -1.686088  -0.137671  -1.375702
    B  -0.664924   1.553816  -1.373996
    B   1.309411   1.127168  -1.368281
    B  -0.000684   0.000858   1.974518
    B   0.000412  -0.000936  -1.976013
    H  -0.025378   0.017684   3.155567
    H   0.543920   2.387124   2.304031
    H  -2.142053   1.271634   2.262448
    H   2.447660   0.123456   2.272183
    H   1.049387  -2.214920   2.276478
    H  -1.859461  -1.591137   2.304899
    H  -0.801715  -3.583457   0.488524
    H  -2.787970  -2.391759  -0.482360
    H  -3.698681  -0.244595   0.425996
    H  -2.948661   1.776477  -0.375578
    H  -1.518670   3.371657   0.451945
    H   0.795290   3.592337  -0.472434
    H   2.797214   2.387609   0.474110
    H   3.690157   0.245295  -0.451601
    H   2.955072  -1.770261   0.371598
    H   1.517982  -3.381225  -0.428169
    H   2.137031  -1.290829  -2.261988
    H  -0.538839  -2.390251  -2.300047
    H  -2.447117  -0.117866  -2.276678
    H  -1.041097   2.217689  -2.273476
    H   1.849600   1.603013  -2.304856
    H   0.025927  -0.016483  -3.157081
    C  -2.038016   1.225650  -0.197055
    C   2.040745  -1.225061   0.194092
