44
B20C2H22
    B  -0.163094  -3.219308   0.002061
    B  -1.367715   2.375360   0.000323
    B  -0.343286   2.326385   1.414353
    B   1.329500   2.229975   0.883204
    B   1.322918   2.247319  -0.881237
    B  -0.345877   2.322992  -1.422819
    B   1.731736   0.726764  -0.000954
    B   0.562964   0.779580  -1.606847
    B  -1.313647   0.871391  -0.993920
    B   0.571991   0.786499   1.583848
    B  -1.731736  -0.726764  -0.000954
    B  -0.571991  -0.786499   1.583848
    B   1.313647  -0.871391  -0.993920
    B  -0.562964  -0.779580  -1.606847
    B   1.367715  -2.375360   0.000323
    B   0.345877  -2.322992  -1.422819
    B  -1.322918  -2.247319  -0.881237
    B  -1.329500  -2.229975   0.883204
    B   0.343286  -2.326385   1.414353
    B   0.163094   3.219308   0.002061
    H   0.208492   4.397249   0.030167
    H  -0.673312   2.839111  -2.431990
    H   2.219855   2.698602  -1.501989
    H  -2.431683   2.880316   0.048302
    H  -0.687977   2.780735   2.446307
    H   2.202903   2.679836   1.537244
    H   0.877541   0.687232   2.716558
    H   2.901744   0.583604   0.040508
    H   0.935117   0.713320  -2.726437
    H  -2.313468   0.883421  -1.619866
    H  -2.054869   0.896782   1.568941
    H  -2.901744  -0.583604   0.040508
    H  -0.877541  -0.687232   2.716558
    H   2.054869  -0.896782   1.568941
    H   2.313468  -0.883421  -1.619866
    H  -0.935117  -0.713320  -2.726437
    H  -2.219855  -2.698602  -1.501989
    H   0.673312  -2.839111  -2.431990
    H   2.431683  -2.880316   0.048302
    H   0.687977  -2.780735   2.446307
    H  -2.202903  -2.679836   1.537244
    H  -0.208492  -4.397249   0.030167
    C  -1.194904   0.909773   0.914243
    C   1.194904  -0.909773   0.914243
