44
B20C2H22
    B  -1.435919   0.836411   1.426049
    B  -1.282400  -1.105760   1.387112
    B   0.696023  -1.593749   1.367023
    B   1.729432   0.160689   1.361921
    B   0.425063   1.676161   1.371372
    B  -1.912183  -1.630350  -0.288980
    B  -0.580983  -2.445615   0.280002
    B   0.993968  -2.352648  -0.239449
    B   2.195467  -1.313427   0.258717
    B   2.542686   0.219565  -0.272584
    B   1.922963   1.676983   0.241133
    B   0.550142   2.460666  -0.267853
    B  -1.004755   2.304399   0.298282
    B   1.480539  -0.910767  -1.366795
    B  -0.352143  -1.690553  -1.368511
    B  -1.658617  -0.130717  -1.431175
    B  -0.660406   1.557477  -1.381000
    B   1.310679   1.138014  -1.366699
    B   0.034543  -0.003791   1.978617
    B   0.031966  -0.012737  -1.981302
    H  -0.035064   0.023067   3.159679
    H   0.522566   2.391335   2.308072
    H  -2.203221   1.206161   2.239504
    H   2.421265   0.233155   2.318615
    H   0.913309  -2.249954   2.327119
    H  -1.949916  -1.524295   2.265421
    H  -0.931424  -3.558358   0.473027
    H  -2.861169  -2.307803  -0.476337
    H  -3.429991  -0.248382   0.370233
    H  -2.966827   1.729783  -0.381026
    H  -1.566252   3.325871   0.487676
    H   0.722223   3.615403  -0.454990
    H   2.781254   2.465379   0.439608
    H   3.698670   0.328551  -0.495125
    H   3.191626  -1.913471   0.471448
    H   1.411051  -3.441158  -0.436104
    H   2.069379  -1.276264  -2.325276
    H  -0.580991  -2.379573  -2.302066
    H  -2.513805  -0.129145  -2.240712
    H  -1.076281   2.226185  -2.259885
    H   1.792334   1.634146  -2.326669
    H  -0.042521  -0.005196  -3.162275
    C  -2.030570   1.213308  -0.215396
    C  -2.361019  -0.198312   0.210513
