44
B20C2H22
    B  -0.170222  -3.237238   0.003027
    B  -1.371331   2.405624  -0.006865
    B  -0.335097   2.352816   1.422327
    B   1.331955   2.268795   0.884761
    B   1.338428   2.266862  -0.886959
    B  -0.345993   2.355720  -1.428267
    B   1.741464   0.770798  -0.013673
    B   0.579260   0.826693  -1.607316
    B  -1.254740   0.883120  -0.978888
    B   0.570372   0.789323   1.538448
    B  -1.741464  -0.770798   0.013673
    B  -0.579260  -0.826693   1.607316
    B   1.254740  -0.883120   0.978888
    B  -0.570372  -0.789323  -1.538448
    B   1.371331  -2.405624   0.006865
    B   0.335097  -2.352816  -1.422327
    B  -1.331955  -2.268795  -0.884761
    B  -1.338428  -2.266862   0.886959
    B   0.345993  -2.355720   1.428267
    B   0.170222   3.237238  -0.003027
    H   0.216930   4.417630   0.006422
    H  -0.669948   2.852481  -2.449853
    H   2.226542   2.727560  -1.516321
    H  -2.451406   2.875620   0.044933
    H  -0.702364   2.787373   2.454941
    H   2.218684   2.704703   1.532297
    H   0.821985   0.716566   2.690417
    H   2.902910   0.574755  -0.029596
    H   0.946030   0.674657  -2.716534
    H  -2.273321   0.874499  -1.577325
    H  -2.050815   0.897234   1.517708
    H  -2.902910  -0.574755   0.029596
    H  -0.946030  -0.674657   2.716534
    H   2.273321  -0.874499   1.577325
    H   2.050815  -0.897234  -1.517708
    H  -0.821985  -0.716566  -2.690417
    H  -2.218684  -2.704703  -1.532297
    H   0.702364  -2.787373  -2.454941
    H   2.451406  -2.875620  -0.044933
    H   0.669948  -2.852481   2.449853
    H  -2.226542  -2.727560   1.516321
    H  -0.216930  -4.417630  -0.006422
    C  -1.175451   0.932744   0.886406
    C   1.175451  -0.932744  -0.886406
