44
B20C2H22
    B  -0.179590  -3.286851  -0.036943
    B  -1.384086   2.482041  -0.012531
    B  -0.367943   2.475670   1.419602
    B   1.335502   2.288609   0.874979
    B   1.335816   2.327619  -0.916609
    B  -0.337823   2.353201  -1.440296
    B   1.746592   0.851789  -0.031207
    B   0.584531   0.818880  -1.551718
    B  -1.239532   0.884341  -0.878217
    B   0.479200   0.877706   1.527313
    B  -1.746592  -0.851789  -0.031207
    B  -0.479200  -0.877706   1.527313
    B   1.239532  -0.884341  -0.878217
    B  -0.584531  -0.818880  -1.551718
    B   1.384086  -2.482041  -0.012531
    B   0.337823  -2.353201  -1.440296
    B  -1.335816  -2.327619  -0.916609
    B  -1.335502  -2.288609   0.874979
    B   0.367943  -2.475670   1.419602
    B   0.179590   3.286851  -0.036943
    H   0.251731   4.467423  -0.018491
    H  -0.685188   2.833435  -2.461540
    H   2.224331   2.781987  -1.550928
    H  -2.464728   2.951819  -0.009448
    H  -0.683030   2.927812   2.461564
    H   2.205047   2.730181   1.542053
    H   0.748692   0.762279   2.667558
    H   2.890784   0.599709   0.082279
    H   0.934697   0.668323  -2.669895
    H  -2.276056   0.917874  -1.446789
    H  -2.015700   0.883403   1.537563
    H  -2.890784  -0.599709   0.082279
    H  -0.748692  -0.762279   2.667558
    H   2.015700  -0.883403   1.537563
    H   2.276056  -0.917874  -1.446789
    H  -0.934697  -0.668323  -2.669895
    H  -2.224331  -2.781987  -1.550928
    H   0.685188  -2.833435  -2.461540
    H   2.464728  -2.951819  -0.009448
    H   0.683030  -2.927812   2.461564
    H  -2.205047  -2.730181   1.542053
    H  -0.251731  -4.467423  -0.018491
    C  -1.155622   1.068907   0.911699
    C   1.155622  -1.068907   0.911699
