44
B20C2H22
    B  -1.444783   0.881900   1.397874
    B  -1.261211  -1.110728   1.370237
    B   0.655370  -1.562033   1.377181
    B   1.726985   0.176002   1.363947
    B   0.398175   1.684087   1.362073
    B  -2.494173  -0.213825   0.285914
    B  -1.880325  -1.644576  -0.296019
    B   0.975030  -2.345764  -0.253780
    B   2.158464  -1.310699   0.288263
    B   2.535295   0.213287  -0.257825
    B   1.919046   1.679107   0.244450
    B   0.554478   2.465056  -0.287453
    B  -1.007241   2.324576   0.267107
    B   1.480043  -0.894434  -1.363585
    B  -0.350900  -1.657468  -1.396989
    B  -1.680157  -0.128316  -1.375702
    B  -0.669303   1.554940  -1.374834
    B   1.320919   1.128365  -1.369003
    B   0.019146   0.009921   1.973792
    B   0.018432   0.007182  -1.975960
    H  -0.034862   0.013377   3.154388
    H   0.530302   2.387397   2.302688
    H  -2.143710   1.260354   2.268571
    H   2.419910   0.221155   2.320713
    H   0.838357  -2.301756   2.277967
    H  -1.808374  -1.664889   2.255651
    H  -0.807795  -3.338271   0.368998
    H  -2.750855  -2.421889  -0.472767
    H  -3.658339  -0.304106   0.458244
    H  -2.961573   1.745352  -0.354054
    H  -1.532189   3.366149   0.452527
    H   0.756698   3.611398  -0.488417
    H   2.783492   2.458446   0.447456
    H   3.695454   0.288609  -0.468313
    H   3.128223  -1.953651   0.492033
    H   1.359623  -3.448881  -0.426536
    H   2.079206  -1.286440  -2.303902
    H  -0.565301  -2.431374  -2.260179
    H  -2.464675  -0.127315  -2.255836
    H  -1.076265   2.202649  -2.273123
    H   1.833334   1.592558  -2.327901
    H  -0.018395  -0.033670  -3.156600
    C  -2.035995   1.216563  -0.182345
    C  -0.538868  -2.307664   0.191984
