44
B20C2H22
    B  -0.203458  -3.110909   0.138404
    B  -1.439548   2.259596   0.035199
    B  -0.388034   1.687254   1.468723
    B   1.349103   2.116686   0.938834
    B   1.286472   2.256430  -0.820173
    B  -0.347474   2.339804  -1.349865
    B   1.837946   0.697883  -0.094142
    B   0.561649   0.778931  -1.606760
    B  -1.360210   0.860400  -1.135006
    B  -1.943424  -0.675152  -0.290330
    B  -0.556218  -0.342228   1.643879
    B   1.666014  -0.854726   0.888297
    B   1.339438  -0.897373  -1.073362
    B  -0.530226  -0.803076  -1.683187
    B   1.354011  -2.331858   0.070161
    B   0.320753  -2.354538  -1.352809
    B  -1.344543  -2.196775  -0.810866
    B  -1.302321  -1.989455   0.946260
    B   0.304111  -2.069447   1.470924
    B   0.103277   3.048069   0.163663
    H   0.090832   4.206964   0.385789
    H  -0.640623   2.978830  -2.298461
    H   2.136971   2.836704  -1.398109
    H  -2.401853   2.920646   0.207883
    H  -0.717387   2.037360   2.541748
    H   2.084861   2.690079   1.661750
    H   1.488264   0.598899   2.448401
    H   3.021744   0.681652  -0.053923
    H   0.927512   0.795975  -2.728884
    H  -2.338250   0.955195  -1.796599
    H  -2.572247   0.813853   1.138677
    H  -3.121752  -0.692100  -0.395014
    H  -0.918590  -0.271800   2.764313
    H   2.671343  -0.979325   1.498975
    H   2.242183  -0.946443  -1.836946
    H  -0.810557  -0.791630  -2.832825
    H  -2.244878  -2.739603  -1.353854
    H   0.600689  -2.988494  -2.308371
    H   2.348145  -2.969129   0.145693
    H   0.563338  -2.372506   2.585638
    H  -2.194448  -2.234655   1.684889
    H  -0.297641  -4.282740   0.247262
    C  -1.612186   0.735519   0.651893
    C   0.987211   0.597233   1.492231
