44
B20C2H22
    B  -1.458790   0.871176   1.390728
    B  -1.307157  -1.132167   1.371132
    B   0.660684  -1.552400   1.374409
    B   1.680189   0.149286   1.373146
    B   0.391594   1.685228   1.370882
    B  -2.546749  -0.212446   0.262805
    B  -1.905621  -1.647048  -0.271578
    B  -0.558593  -2.455507   0.273133
    B   1.008884  -2.348183  -0.261840
    B   2.543652   0.212240  -0.269195
    B   1.907438   1.647942   0.268754
    B   0.558597   2.458013  -0.269077
    B  -1.007917   2.345430   0.268019
    B   1.454414  -0.879078  -1.391039
    B  -0.386203  -1.685951  -1.370113
    B  -1.681136  -0.147122  -1.374009
    B  -0.657163   1.552929  -1.373779
    B   1.303085   1.137142  -1.371344
    B  -0.011377   0.007350   1.976400
    B   0.011499  -0.007532  -1.976569
    H  -0.037540   0.023450   3.158071
    H   0.561398   2.380694   2.311290
    H  -2.149447   1.287355   2.251806
    H   2.443702   0.124313   2.272714
    H   1.041506  -2.213359   2.274942
    H  -1.840940  -1.609555   2.311358
    H  -0.804488  -3.594955   0.470007
    H  -2.795910  -2.399737  -0.467484
    H  -3.712945  -0.230275   0.445100
    H  -2.927377   1.760383  -0.389337
    H  -1.540269   3.382240   0.455898
    H   0.801454   3.598609  -0.462980
    H   2.800427   2.398048   0.462217
    H   3.708940   0.229530  -0.457560
    H   2.930037  -1.757119   0.388490
    H   1.540533  -3.386304  -0.444029
    H   2.146209  -1.293514  -2.252026
    H  -0.557542  -2.382020  -2.309800
    H  -2.443713  -0.121845  -2.274376
    H  -1.038280   2.214770  -2.273508
    H   1.837087   1.613503  -2.311993
    H   0.037780  -0.023423  -3.158237
    C  -2.014478   1.210324  -0.202440
    C   2.015220  -1.209736   0.201946
