44
B20C2H22
    B  -0.167646  -3.220073   0.000544
    B  -1.367251   2.375239   0.000840
    B  -0.343543   2.329525   1.414687
    B   1.335999   2.229986   0.880731
    B   1.324401   2.253071  -0.887120
    B  -0.341657   2.326860  -1.425278
    B   1.735008   0.734297  -0.006248
    B   0.566054   0.779959  -1.608240
    B  -1.301858   0.871944  -1.000241
    B   0.579953   0.792172   1.568878
    B  -1.735008  -0.734297  -0.006248
    B  -0.579953  -0.792172   1.568878
    B   1.301858  -0.871944  -1.000241
    B  -0.566054  -0.779959  -1.608240
    B   1.367251  -2.375239   0.000840
    B   0.341657  -2.326860  -1.425278
    B  -1.324401  -2.253071  -0.887120
    B  -1.335999  -2.229986   0.880731
    B   0.343543  -2.329525   1.414687
    B   0.167646   3.220073   0.000544
    H   0.213603   4.399445   0.038132
    H  -0.676063   2.843181  -2.433777
    H   2.226647   2.695878  -1.508931
    H  -2.442823   2.855311   0.066985
    H  -0.703886   2.756117   2.454445
    H   2.208161   2.678352   1.539833
    H   0.865544   0.675307   2.705195
    H   2.900143   0.562480   0.055982
    H   0.942881   0.705694  -2.726827
    H  -2.321414   0.890885  -1.594701
    H  -2.046436   0.870706   1.557986
    H  -2.900143  -0.562480   0.055982
    H  -0.865544  -0.675307   2.705195
    H   2.046436  -0.870706   1.557986
    H   2.321414  -0.890885  -1.594701
    H  -0.942881  -0.705694  -2.726827
    H  -2.226647  -2.695878  -1.508931
    H   0.676063  -2.843181  -2.433777
    H   2.442823  -2.855311   0.066985
    H   0.703886  -2.756117   2.454445
    H  -2.208161  -2.678352   1.539833
    H  -0.213603  -4.399445   0.038132
    C  -1.179693   0.909134   0.907124
    C   1.179693  -0.909134   0.907124
