44
B20C2H22
    B  -1.473140   0.878372   1.368939
    B  -1.294248  -1.116044   1.364537
    B   0.674488  -1.577903   1.366478
    B   1.717407   0.151895   1.361925
    B   0.389192   1.678151   1.366547
    B  -2.521189  -0.214986   0.261797
    B  -1.899961  -1.662329  -0.270599
    B   0.978626  -2.342249  -0.259496
    B   2.173089  -1.313401   0.264269
    B   2.527468   0.217819  -0.273406
    B   1.917286   1.669966   0.259673
    B   0.563197   2.478020  -0.261677
    B  -1.002405   2.325136   0.272703
    B   1.467108  -0.898179  -1.366896
    B  -0.376570  -1.671929  -1.368359
    B  -1.705070  -0.148895  -1.366122
    B  -0.668730   1.579101  -1.363391
    B   1.295727   1.138076  -1.366390
    B   0.003700   0.001373   1.959612
    B   0.000881   0.001298  -1.959864
    H  -0.004614   0.000697   3.144672
    H   0.537969   2.373789   2.315178
    H  -2.096946   1.248051   2.304797
    H   2.426337   0.211128   2.311099
    H   0.936321  -2.245667   2.309329
    H  -1.834954  -1.594213   2.302964
    H  -0.820891  -3.504650   0.451894
    H  -2.775978  -2.435253  -0.471004
    H  -3.686269  -0.314820   0.455236
    H  -3.091714   1.851580  -0.439539
    H  -1.478945   3.391572   0.479212
    H   0.808583   3.621200  -0.460882
    H   2.799160   2.437211   0.462382
    H   3.690908   0.314291  -0.484605
    H   3.170025  -1.923535   0.465726
    H   1.413813  -3.428343  -0.454037
    H   2.072232  -1.272550  -2.315407
    H  -0.547723  -2.380381  -2.301380
    H  -2.423622  -0.206845  -2.305250
    H  -0.968913   2.233254  -2.304373
    H   1.829470   1.604043  -2.317633
    H  -0.006834  -0.004016  -3.144919
    C  -2.148994   1.288806  -0.250747
    C  -0.564586  -2.437963   0.257941
