44
B20C2H22
    B  -1.436476   0.834493   1.413591
    B  -1.282668  -1.103519   1.385450
    B   0.700227  -1.592453   1.366177
    B   1.731014   0.156136   1.361479
    B   0.418251   1.673596   1.369029
    B  -1.909937  -1.619007  -0.283857
    B  -0.581907  -2.443800   0.282143
    B   0.992884  -2.351298  -0.242519
    B   2.198253  -1.315022   0.258185
    B   2.545706   0.219758  -0.273100
    B   1.921636   1.676177   0.243965
    B   0.549077   2.460008  -0.268650
    B  -1.007238   2.293208   0.293515
    B   1.484226  -0.907788  -1.367327
    B  -0.356344  -1.685272  -1.366436
    B  -1.656477  -0.129376  -1.419512
    B  -0.659937   1.555282  -1.378921
    B   1.314224   1.135493  -1.366462
    B   0.033741  -0.006066   1.975676
    B   0.032427  -0.010347  -1.978986
    H  -0.033029   0.019156   3.156216
    H   0.510960   2.388569   2.305804
    H  -2.189377   1.200648   2.241660
    H   2.419374   0.232946   2.319951
    H   0.914949  -2.250132   2.325544
    H  -1.943397  -1.520252   2.269174
    H  -0.933841  -3.554555   0.479279
    H  -2.856560  -2.299631  -0.470452
    H  -3.434686  -0.245847   0.368215
    H  -2.971880   1.729812  -0.381089
    H  -1.565482   3.316101   0.484116
    H   0.719101   3.613972  -0.457750
    H   2.776334   2.467379   0.444414
    H   3.701629   0.331605  -0.492790
    H   3.193208  -1.917368   0.468249
    H   1.404885  -3.441111  -0.440287
    H   2.068473  -1.275526  -2.327347
    H  -0.589155  -2.371893  -2.300195
    H  -2.499453  -0.130248  -2.241573
    H  -1.074695   2.218035  -2.262390
    H   1.794811   1.633615  -2.325571
    H  -0.038243  -0.002858  -3.159483
    C  -2.037286   1.212602  -0.218506
    C  -2.366631  -0.194543   0.212305
