44
B20C2H22
    B  -1.492506   0.789263   1.347210
    B  -1.462756  -1.072585   1.336008
    B   1.781024   0.287053   1.333081
    B   0.469521   1.621050   1.349178
    B  -2.189624   1.315796  -0.277072
    B  -2.621732  -0.216106   0.188239
    B  -1.937641  -1.663205  -0.280098
    B  -0.598066  -2.433879   0.348147
    B   0.969437  -2.281972  -0.244979
    B   2.179211  -1.264180   0.328202
    B   2.544139   0.239451  -0.288147
    B   1.973425   1.730036   0.192887
    B   0.573781   2.488190  -0.273708
    B  -0.969344   2.279752   0.316254
    B   1.441201  -0.887954  -1.342304
    B  -0.364705  -1.650138  -1.336829
    B  -1.742530  -0.147075  -1.371893
    B  -0.673164   1.588646  -1.338016
    B   1.310775   1.155742  -1.371384
    B   0.041296  -0.104269   1.895333
    H   0.065203  -0.164250   3.074372
    H   0.579769   2.278997   2.325672
    H  -2.040480   1.166270   2.325470
    H   2.433557   0.225553   2.314688
    H   0.946282  -2.185373   2.100894
    H  -1.868399  -1.584998   2.318796
    H  -0.799496  -3.563049   0.625267
    H  -2.735474  -2.503240  -0.514791
    H  -3.792087  -0.313890   0.321556
    H  -3.155168   1.968426  -0.473029
    H  -1.420478   3.339327   0.579343
    H   0.777186   3.636605  -0.464624
    H   2.857260   2.502128   0.333221
    H   3.701912   0.243249  -0.526328
    H   3.134851  -1.903246   0.593521
    H   1.423895  -3.366774  -0.323785
    H   1.978490  -1.226216  -2.335863
    H  -0.497657  -2.276625  -2.326881
    H  -2.319370  -0.202515  -2.399139
    H  -0.915684   2.160161  -2.342388
    H   1.750681   1.533759  -2.398448
    H  -0.008587   0.018281  -2.824356
    C  -0.007050   0.015466  -1.743438
    C   0.679793  -1.570978   1.251092
