44
B20C2H22
    B  -1.541916   0.764454   1.349916
    B  -1.566024  -1.048815   1.345634
    B   1.817198   0.330154   1.333943
    B   0.513021   1.629138   1.353767
    B  -2.192969   1.319495  -0.282133
    B  -2.664647  -0.211073   0.159211
    B  -1.931111  -1.656071  -0.266616
    B  -0.596195  -2.392376   0.450981
    B   0.971034  -2.292490  -0.236874
    B   2.178126  -1.248429   0.369780
    B   2.536060   0.243387  -0.297883
    B   1.995258   1.749673   0.182562
    B   0.576468   2.497555  -0.251527
    B  -0.953374   2.231635   0.370426
    B   1.412695  -0.891685  -1.340446
    B  -0.349585  -1.618119  -1.325284
    B  -1.728021  -0.152055  -1.373605
    B  -0.651697   1.574461  -1.327057
    B   1.289526   1.164853  -1.371651
    B   0.046316  -0.153066   1.856931
    H   0.063192  -0.197071   3.038249
    H   0.601380   2.264324   2.347771
    H  -2.052523   1.155082   2.343350
    H   2.454892   0.253840   2.324417
    H   1.013454  -2.227723   2.104544
    H  -1.969304  -1.560257   2.331079
    H  -0.795483  -3.525593   0.720304
    H  -2.667785  -2.535553  -0.551093
    H  -3.841794  -0.314559   0.206726
    H  -3.124114   2.005454  -0.522211
    H  -1.410521   3.292100   0.625823
    H   0.739016   3.648437  -0.460860
    H   2.892576   2.515194   0.270097
    H   3.678103   0.212705  -0.600028
    H   3.143907  -1.894525   0.581803
    H   1.406999  -3.378293  -0.369768
    H   1.974620  -1.232545  -2.319802
    H  -0.499233  -2.275210  -2.293536
    H  -2.314382  -0.212308  -2.395622
    H  -0.913709   2.177183  -2.308624
    H   1.743266   1.551865  -2.389708
    H  -0.008581   0.026513  -2.858937
    C  -0.006514   0.023142  -1.779578
    C   0.733068  -1.612144   1.256458
