44
B20C2H22
    B  -0.152851  -3.206994  -0.013415
    B  -1.367954   2.368346   0.002725
    B  -0.343819   2.327583   1.431522
    B   1.329566   2.246207   0.885582
    B   1.318609   2.228073  -0.869924
    B   1.725501   0.718838   0.002118
    B   0.563194   0.782316  -1.590661
    B  -1.308927   0.885118  -0.976375
    B   0.567020   0.792462   1.604244
    B  -1.706438  -0.729679  -0.004867
    B  -0.551290  -0.783107   1.594599
    B   1.323675  -0.876101   0.989787
    B   1.324608  -0.890203  -0.987613
    B  -0.561249  -0.769589  -1.596309
    B   1.382028  -2.386811  -0.002855
    B   0.349649  -2.327865  -1.429405
    B  -1.316679  -2.228973  -0.876651
    B   0.346106  -2.314550   1.411862
    B   0.165293   3.206526   0.017641
    H   0.179821   4.378927  -0.092967
    H  -0.581563   2.727061  -2.205214
    H   2.119329   2.734746  -1.569585
    H  -2.382809   2.956620  -0.101724
    H  -0.675425   2.865885   2.427649
    H   2.221236   2.731705   1.487230
    H   0.898301   0.712010   2.735588
    H   2.904460   0.639646  -0.020281
    H   0.890568   0.781278  -2.723574
    H  -2.258985   0.931817  -1.672753
    H  -2.291072   0.903237   1.653525
    H  -2.883804  -0.669108  -0.001128
    H  -0.953805  -0.778270   2.703037
    H   2.265997  -0.903400   1.702432
    H   2.262333  -0.874140  -1.706390
    H  -0.954354  -0.737169  -2.710757
    H  -2.248172  -2.718747  -1.405179
    H   0.618116  -2.863045  -2.446012
    H   2.408050  -2.969594   0.018885
    H   0.532418  -2.870827   2.433163
    H  -2.012503  -2.593758   1.361008
    H  -0.315298  -4.371792   0.049057
    B  -1.317752   0.866791   0.983475
    C  -0.305888   2.236852  -1.284674
    C  -1.205239  -2.158322   0.793183
