44
B20C2H22
    B  -1.483635   0.880020   1.365351
    B  -1.309146  -1.125791   1.365151
    B   0.683969  -1.588607   1.366377
    B   1.720741   0.149931   1.362594
    B   0.394662   1.682696   1.366511
    B  -1.920266  -1.670784  -0.265795
    B  -0.571875  -2.476318   0.271643
    B   0.995937  -2.346438  -0.259134
    B   2.185310  -1.311375   0.259801
    B   2.531886   0.221876  -0.274831
    B   1.923140   1.670345   0.261844
    B   0.572913   2.484861  -0.256860
    B  -0.994182   2.339316   0.271591
    B   1.474052  -0.897613  -1.366554
    B  -0.382556  -1.682341  -1.363648
    B  -1.724737  -0.151712  -1.365999
    B  -0.669850   1.591959  -1.363519
    B   1.296428   1.141652  -1.366345
    B   0.001682  -0.000819   1.959873
    B  -0.002481   0.000876  -1.959579
    H   0.002340  -0.000234   3.151154
    H   0.554348   2.381491   2.319208
    H  -2.097966   1.251608   2.317155
    H   2.437808   0.213184   2.313048
    H   0.963195  -2.248464   2.319285
    H  -1.850039  -1.597289   2.317253
    H  -0.838507  -3.620855   0.482757
    H  -2.803542  -2.447314  -0.471251
    H  -3.713847  -0.324940   0.455913
    H  -3.186020   1.921608  -0.472199
    H  -1.456816   3.419639   0.482362
    H   0.834630   3.632575  -0.455942
    H   2.814602   2.438127   0.464782
    H   3.702339   0.325243  -0.486402
    H   3.197045  -1.912531   0.460750
    H   1.452091  -3.431435  -0.459283
    H   2.088820  -1.266046  -2.319346
    H  -0.544899  -2.383317  -2.314287
    H  -2.438149  -0.214531  -2.319197
    H  -0.952441   2.252537  -2.314934
    H   1.838751   1.610740  -2.318811
    H  -0.002881   0.001056  -3.150849
    C  -2.181035   1.310852  -0.265950
    C  -2.541129  -0.222757   0.257244
