44
B20C2H22
    B  -1.387264   2.384117   0.004274
    B  -0.352804   2.329713   1.431120
    B   1.313664   2.228573   0.886216
    B  -0.354413   2.314452  -1.414189
    B   1.726578   0.717551   0.017056
    B   0.546805   0.777911  -1.609697
    B  -1.328738   0.875885  -0.992741
    B   0.561206   0.777901   1.609376
    B  -1.740633  -0.716267  -0.005081
    B  -0.561933  -0.777091   1.619261
    B   1.327867  -0.883847   0.999468
    B   1.333040  -0.871774  -0.998759
	B  -1.328186   0.885741   0.995481
    B  -0.568765  -0.785080  -1.610225
    B   1.378189  -2.359902   0.000404
    B   0.345251  -2.305259  -1.423513
    B  -1.323024  -2.222931  -0.878845
    B  -1.322518  -2.214788   0.878278
    B   0.346356  -2.309072   1.421104
    B   0.147041   3.206823   0.012301
    H   0.331953   4.367198  -0.078159
    H  -0.520908   2.878444  -2.435621
    H   2.005837   2.587893  -1.359638
    H  -2.418144   2.959547  -0.018911
    H  -0.630590   2.867610   2.444977
    H   2.251737   2.736030   1.387806
    H   0.947068   0.739001   2.726654
    H   2.905221   0.690098  -0.018637
    H   0.945802   0.788618  -2.719609
    H  -2.271355   0.904198  -1.706431
    H  -2.284762   0.885664   1.690387
    H  -2.920476  -0.634382  -0.010005
    H  -0.920572  -0.736283   2.745582
    H   2.306468  -0.882441   1.663620
    H   2.289532  -0.896830  -1.694513
    H  -0.895602  -0.718036  -2.744922
    H  -2.155977  -2.815697  -1.464863
    H   0.626970  -2.948715  -2.369305
    H   2.341257  -3.038396  -0.007752
    H   0.622453  -2.957988   2.365155
    H  -2.156005  -2.810304   1.460573
    H  -0.207055  -4.118922  -0.003051
    C  -0.152100  -3.039810  -0.002031
    C   1.201528   2.140844  -0.792593
