44
B20C2H22
    B  -1.445202   0.884025   1.401734
    B  -1.262415  -1.118015   1.374455
    B   0.653138  -1.564031   1.379931
    B   1.727691   0.181154   1.365413
    B   0.402551   1.684449   1.363345
    B  -2.506122  -0.219592   0.289048
    B  -1.893190  -1.648373  -0.298908
    B   0.985100  -2.352247  -0.252345
    B   2.157206  -1.307857   0.290110
    B   2.536424   0.214385  -0.255902
    B   1.920759   1.679217   0.243360
    B   0.555710   2.461985  -0.288943
    B  -1.005365   2.336703   0.264809
    B   1.482531  -0.891202  -1.364001
    B  -0.351409  -1.658904  -1.399010
    B  -1.686950  -0.124591  -1.378595
    B  -0.672240   1.554347  -1.377502
    B   1.324426   1.124376  -1.369478
    B   0.018336   0.010815   1.976384
    B   0.016934   0.005437  -1.976759
    H  -0.038386   0.017367   3.157490
    H   0.539652   2.388607   2.303268
    H  -2.149468   1.268292   2.266342
    H   2.421807   0.223160   2.321999
    H   0.839049  -2.308853   2.276438
    H  -1.805226  -1.685250   2.254930
    H  -0.802140  -3.332912   0.365424
    H  -2.757643  -2.432773  -0.475761
    H  -3.671303  -0.300647   0.460548
    H  -2.954750   1.745302  -0.354055
    H  -1.533128   3.376686   0.450346
    H   0.761161   3.608565  -0.490197
    H   2.784618   2.460343   0.445324
    H   3.697355   0.287975  -0.465893
    H   3.129128  -1.949095   0.493847
    H   1.366216  -3.456190  -0.426456
    H   2.085506  -1.279362  -2.304121
    H  -0.565034  -2.437324  -2.259121
    H  -2.475254  -0.117551  -2.256012
    H  -1.079463   2.208123  -2.271834
    H   1.835188   1.591021  -2.328573
    H  -0.019759  -0.040507  -3.157852
    C  -2.028522   1.211750  -0.180271
    C  -0.536825  -2.298127   0.187979
