44
B20C2H22
    B  -0.168491  -3.219802   0.008012
    B  -1.360311   2.366631   0.003991
    B  -0.331913   2.313070   1.419570
    B   1.334551   2.237706   0.884075
    B   1.330093   2.246618  -0.874122
    B  -0.340459   2.327595  -1.416941
    B   1.737226   0.723492   0.004095
    B   0.564709   0.783672  -1.604292
    B  -1.323263   0.877518  -0.987312
    B   0.571047   0.782953   1.609853
    B  -1.737226  -0.723492   0.004095
    B  -0.571047  -0.782953   1.609853
    B   1.323263  -0.877518  -0.987312
    B  -0.564709  -0.783672  -1.604292
    B   1.360311  -2.366631   0.003991
    B   0.340459  -2.327595  -1.416941
    B  -1.330093  -2.246618  -0.874122
    B  -1.334551  -2.237706   0.884075
    B   0.331913  -2.313070   1.419570
    B   0.168491   3.219802   0.008012
    H   0.218160   4.404098   0.020319
    H  -0.653104   2.855895  -2.431368
    H   2.220574   2.716268  -1.501148
    H  -2.411777   2.914110   0.022289
    H  -0.651247   2.818080   2.443465
    H   2.219962   2.702951   1.521455
    H   0.918576   0.725335   2.740184
    H   2.918130   0.626564   0.008411
    H   0.930240   0.731407  -2.730603
    H  -2.291703   0.893975  -1.669475
    H  -2.118546   0.812058   1.597118
    H  -2.918130  -0.626564   0.008411
    H  -0.918576  -0.725335   2.740184
    H   2.118546  -0.812058   1.597118
    H   2.291703  -0.893975  -1.669475
    H  -0.930240  -0.731407  -2.730603
    H  -2.220574  -2.716268  -1.501148
    H   0.653104  -2.855895  -2.431368
    H   2.411777  -2.914110   0.022289
    H   0.651247  -2.818080   2.443465
    H  -2.219962  -2.702951   1.521455
    H  -0.218160  -4.404098   0.020319
    C  -1.222194   0.855644   0.932425
    C   1.222194  -0.855644   0.932425
