44
B20C2H22
    B  -1.387964   2.383659   0.004320
    B  -0.352722   2.328925   1.431632
    B   1.314518   2.229252   0.884942
    B  -0.353179   2.315389  -1.414591
    B   1.724740   0.718543   0.014559
    B   0.548211   0.778514  -1.606861
    B  -1.327890   0.875545  -0.993863
	B  -1.329500   0.885322   0.996079
    B   0.562747   0.777510   1.608907
    B  -1.740395  -0.716310  -0.004302
    B  -0.562004  -0.776904   1.618472
    B   1.328408  -0.884035   0.999276
    B   1.332579  -0.871808  -0.998084
    B  -0.568429  -0.785486  -1.611034
    B   1.378830  -2.361195   0.000834
    B   0.345018  -2.306380  -1.424166
    B  -1.324032  -2.224208  -0.878875
    B  -1.323407  -2.216580   0.878720
    B   0.345904  -2.310496   1.421880
    B   0.146318   3.207303   0.012874
    H   0.326793   4.368739  -0.074208
    H  -0.522439   2.878881  -2.435921
    H   2.006273   2.589463  -1.359914
    H  -2.417726   2.961245  -0.020223
    H  -0.628819   2.868649   2.445106
    H   2.251468   2.736341   1.389171
    H   0.951035   0.740436   2.725478
    H   2.903447   0.689188  -0.020819
    H   0.947126   0.787340  -2.716932
    H  -2.268956   0.905589  -1.709657
    H  -2.286090   0.887120   1.691160
    H  -2.920254  -0.633019  -0.010205
    H  -0.919921  -0.734681   2.745091
    H   2.306651  -0.883504   1.664033
    H   2.289023  -0.899419  -1.694031
    H  -0.895733  -0.719203  -2.745670
    H  -2.157000  -2.817024  -1.464922
    H   0.627218  -2.949666  -2.369971
    H   2.342047  -3.039518  -0.007443
    H   0.622020  -2.959335   2.366038
    H  -2.157049  -2.811653   1.461303
    H  -0.206079  -4.118444  -0.003763
    C  -0.152199  -3.038242  -0.001954
    C   1.201417   2.144155  -0.792466
