44
B20C2H22
    B  -0.148736  -3.210164  -0.016329
    B  -1.373691   2.371357   0.010138
    B  -0.344048   2.329694   1.437540
    B   1.332874   2.247350   0.889762
    B   1.325320   2.227012  -0.867906
    B   1.729498   0.717520   0.004579
    B   0.568258   0.776017  -1.597117
    B  -1.316107   0.882636  -0.979906
    B   0.569941   0.795918   1.605631
    B  -1.714502  -0.727006  -0.006080
    B  -0.551245  -0.777002   1.602519
    B   1.327697  -0.874515   0.990245
    B   1.327355  -0.893795  -0.988169
    B  -0.562852  -0.771450  -1.602679
    B   1.387387  -2.387884  -0.004648
    B   0.352749  -2.330134  -1.434732
    B  -1.317124  -2.232195  -0.885532
    B   0.352508  -2.313419   1.413526
    B   0.167165   3.209206   0.022398
    H   0.176516   4.380258  -0.111063
    H  -0.578742   2.727282  -2.200026
    H   2.112777   2.743104  -1.577059
    H  -2.383073   2.967512  -0.110325
    H  -0.675800   2.865181   2.436287
    H   2.226890   2.729267   1.492713
    H   0.896560   0.704983   2.738418
    H   2.909418   0.638676  -0.016140
    H   0.893601   0.785014  -2.730984
    H  -2.266504   0.934745  -1.676550
    H  -2.295343   0.907689   1.660903
    H  -2.892730  -0.671167  -0.002549
    H  -0.957170  -0.781855   2.710130
    H   2.271377  -0.902949   1.702550
    H   2.263213  -0.867647  -1.710519
    H  -0.954302  -0.741210  -2.718832
    H  -2.254312  -2.729925  -1.398146
    H   0.622706  -2.862689  -2.453442
    H   2.416310  -2.967443   0.017739
    H   0.521195  -2.877584   2.434541
    H  -2.007239  -2.594975   1.358666
    H  -0.328796  -4.372409   0.061632
    B  -1.322419   0.869048   0.988610
    C  -0.305356   2.228539  -1.279672
    C  -1.201222  -2.150593   0.789878
