44
B20C2H22
    B  -1.443811   0.884858   1.396790
    B  -1.260348  -1.123359   1.377763
    B   0.647688  -1.564521   1.377099
    B   1.727456   0.182364   1.365676
    B   0.404311   1.681342   1.366141
    B  -2.513197  -0.222823   0.290289
    B  -1.901771  -1.651439  -0.296361
    B   0.989992  -2.359103  -0.252822
    B   2.151556  -1.306192   0.286853
    B   2.538710   0.215743  -0.256556
    B   1.922591   1.679700   0.245509
    B   0.553238   2.456809  -0.285866
    B  -1.007793   2.345773   0.261776
    B   1.482780  -0.885476  -1.366670
    B  -0.355225  -1.657041  -1.393693
    B  -1.687425  -0.121360  -1.376942
    B  -0.675820   1.551175  -1.375646
    B   1.325516   1.121540  -1.369265
    B   0.015135   0.011978   1.973425
    B   0.015078   0.001840  -1.972277
    H  -0.036716   0.019512   3.154860
    H   0.539993   2.386163   2.305734
    H  -2.144145   1.273985   2.262523
    H   2.423539   0.217859   2.320983
    H   0.844511  -2.303946   2.275906
    H  -1.800574  -1.688868   2.260794
    H  -0.798729  -3.329617   0.368072
    H  -2.755225  -2.446649  -0.477488
    H  -3.678662  -0.288194   0.465708
    H  -2.950562   1.743934  -0.360215
    H  -1.543993   3.380151   0.452032
    H   0.765656   3.602443  -0.488248
    H   2.784897   2.462686   0.446434
    H   3.700058   0.288002  -0.464355
    H   3.126615  -1.943200   0.491813
    H   1.361139  -3.465008  -0.433594
    H   2.085370  -1.274522  -2.306659
    H  -0.565263  -2.430576  -2.259143
    H  -2.468095  -0.120920  -2.261227
    H  -1.071588   2.208514  -2.272658
    H   1.833195   1.594555  -2.326805
    H  -0.016963  -0.041895  -3.153655
    C  -2.025805   1.208881  -0.187507
    C  -0.536622  -2.294414   0.192404
