44
B20C2H22
    B  -0.167431  -3.230983  -0.003474
    B  -1.370039   2.388802  -0.002438
    B  -0.339593   2.355877   1.422685
    B   1.344831   2.248669   0.877681
    B   1.326109   2.279198  -0.893883
    B  -0.337405   2.336810  -1.428068
    B   1.742557   0.768130  -0.014025
    B   0.573330   0.790649  -1.594269
    B  -1.274282   0.872622  -0.995396
    B   0.586384   0.809819   1.558144
    B  -1.742557  -0.768130  -0.014025
    B  -0.586384  -0.809819   1.558144
    B   1.274282  -0.872622  -0.995396
    B  -0.573330  -0.790649  -1.594269
    B   1.370039  -2.388802  -0.002438
    B   0.337405  -2.336810  -1.428068
    B  -1.326109  -2.279198  -0.893883
    B  -1.344831  -2.248669   0.877681
    B   0.339593  -2.355877   1.422685
    B   0.167431   3.230983  -0.003474
    H   0.214365   4.410987   0.033236
    H  -0.673138   2.850214  -2.437647
    H   2.227737   2.717187  -1.519960
    H  -2.449946   2.858655   0.059751
    H  -0.696799   2.776645   2.465258
    H   2.217492   2.706653   1.529512
    H   0.850231   0.682025   2.698564
    H   2.902551   0.572550   0.059377
    H   0.946490   0.705624  -2.713289
    H  -2.307246   0.901272  -1.566429
    H  -2.035289   0.889190   1.555568
    H  -2.902551  -0.572550   0.059377
    H  -0.850231  -0.682025   2.698564
    H   2.035289  -0.889190   1.555568
    H   2.307246  -0.901272  -1.566429
    H  -0.946490  -0.705624  -2.713289
    H  -2.227737  -2.717187  -1.519960
    H   0.673138  -2.850214  -2.437647
    H   2.449946  -2.858655   0.059751
    H   0.696799  -2.776645   2.465258
    H  -2.217492  -2.706653   1.529512
    H  -0.214365  -4.410987   0.033236
    C  -1.171297   0.929889   0.909102
    C   1.171297  -0.929889   0.909102
