44
B20C2H22
    B  -1.385750   2.384394   0.003742
    B  -0.352858   2.330956   1.430606
    B   1.313085   2.227473   0.887007
    B  -0.354325   2.313064  -1.413825
    B   1.728341   0.717201   0.020078
    B   0.544690   0.778110  -1.613452
    B  -1.328782   0.875978  -0.991158
    B   0.558466   0.778718   1.611131
    B  -1.741457  -0.717190  -0.005585
    B  -0.561958  -0.778348   1.621370
    B   1.325971  -0.882883   0.999086
	B  -1.326413   0.885253   0.994876
    B   1.332342  -0.870856  -0.999242
    B  -0.568507  -0.784585  -1.610185
    B   1.376891  -2.358358  -0.000359
    B   0.345248  -2.304400  -1.422769
    B  -1.321889  -2.222409  -0.878717
    B  -1.321362  -2.214145   0.878134
    B   0.346888  -2.308400   1.419805
    B   0.148892   3.205889   0.011170
    H   0.335355   4.365888  -0.080867
    H  -0.519988   2.876900  -2.435545
    H   2.006332   2.584732  -1.359789
    H  -2.417134   2.958829  -0.018892
    H  -0.631865   2.868417   2.444304
    H   2.252189   2.734381   1.387386
    H   0.942347   0.738494   2.728967
    H   2.906891   0.689612  -0.015862
    H   0.943245   0.789532  -2.723436
    H  -2.272748   0.903351  -1.702962
    H  -2.283246   0.884784   1.689279
    H  -2.921225  -0.636255  -0.009113
    H  -0.920979  -0.739082   2.747482
    H   2.304751  -0.881885   1.662935
    H   2.289079  -0.892870  -1.694490
    H  -0.895535  -0.717954  -2.744825
    H  -2.155616  -2.813548  -1.465289
    H   0.627094  -2.946060  -2.369771
    H   2.341676  -3.034444  -0.008253
    H   0.624403  -2.955815   2.364478
    H  -2.155432  -2.808541   1.460839
    H  -0.207418  -4.120393  -0.002908
    C  -0.152013  -3.041128  -0.002295
    C   1.202322   2.137591  -0.793087
