44
B20C2H22
    B  -0.172320  -3.225873   0.005021
    B  -1.367643   2.388393  -0.006421
    B  -0.335356   2.335439   1.417865
    B   1.328669   2.250920   0.881870
    B   1.337679   2.249993  -0.886880
    B  -0.344801   2.337172  -1.425404
    B   1.738820   0.748671  -0.017186
    B   0.582030   0.805362  -1.605793
    B  -1.281630   0.876414  -0.990104
    B   0.573324   0.781205   1.566912
    B  -1.738820  -0.748671   0.017186
    B  -0.582030  -0.805362   1.605793
    B   1.281630  -0.876414   0.990104
    B  -0.573324  -0.781205  -1.566912
    B   1.367643  -2.388393   0.006421
    B   0.335356  -2.335439  -1.417865
    B  -1.328669  -2.250920  -0.881870
    B  -1.337679  -2.249993   0.886880
    B   0.344801  -2.337172   1.425404
    B   0.172320   3.225873  -0.005021
    H   0.217872   4.406326   0.005505
    H  -0.674759   2.826611  -2.449463
    H   2.226836   2.707908  -1.516760
    H  -2.449237   2.856033   0.053624
    H  -0.711469   2.767450   2.449339
    H   2.215413   2.679594   1.535512
    H   0.834529   0.713103   2.716803
    H   2.903984   0.569913  -0.047135
    H   0.964102   0.667826  -2.712957
    H  -2.294955   0.873009  -1.597085
    H  -2.066495   0.891168   1.531501
    H  -2.903984  -0.569913   0.047135
    H  -0.964102  -0.667826   2.712957
    H   2.294955  -0.873009   1.597085
    H   2.066495  -0.891168  -1.531501
    H  -0.834529  -0.713103  -2.716803
    H  -2.215413  -2.679594  -1.535512
    H   0.711469  -2.767450  -2.449339
    H   2.449237  -2.856033  -0.053624
    H   0.674759  -2.826611   2.449463
    H  -2.226836  -2.707908   1.516760
    H  -0.217872  -4.406326  -0.005505
    C  -1.188376   0.917831   0.895191
    C   1.188376  -0.917831  -0.895191
