44
B20C2H22
    B  -0.171032  -3.206707   0.020919
    B  -1.382191   2.347189   0.001977
    B  -0.351034   2.220708   1.426633
    B   1.326395   2.206816   0.883841
    B   1.321337   2.235047  -0.872579
    B  -0.344672   2.320935  -1.414912
    B   1.740978   0.709597  -0.016520
    B   0.566794   0.774586  -1.621478
    B  -1.325292   0.866142  -1.011668
    B  -1.724501  -0.709667  -0.008172
    B  -0.559767  -0.735376   1.605919
    B   1.326579  -0.865462   0.982946
    B   1.326960  -0.881838  -1.001514
    B  -0.558878  -0.785116  -1.616470
    B   1.369799  -2.376623   0.007060
    B   0.342058  -2.331193  -1.417604
    B  -1.324955  -2.237164  -0.869870
    B  -1.326648  -2.213437   0.893920
    B   0.338812  -2.299290   1.436127
    B   0.150142   3.185354   0.039635
    H   0.186841   4.360029   0.113257
    H  -0.663939   2.867204  -2.409272
    H   2.212077   2.720282  -1.472808
    H  -2.429235   2.881491   0.084712
    H  -0.673981   2.623384   2.483745
    H   2.168925   2.644555   1.581842
    H   0.960438   0.742090   2.511034
    H   2.915407   0.621957   0.048816
    H   0.929226   0.732120  -2.743268
    H  -2.316222   0.887283  -1.651039
    H  -2.178589   0.902764   1.489202
    H  -2.899177  -0.576565   0.034251
    H  -0.914040  -0.575848   2.719346
    H   2.258537  -0.838448   1.711144
    H   2.291092  -0.886368  -1.685150
    H  -0.933813  -0.721903  -2.735527
    H  -2.234289  -2.679980  -1.479144
    H   0.643736  -2.858302  -2.429366
    H   2.418139  -2.919149   0.034723
    H   0.634935  -2.782073   2.472475
    H  -2.217421  -2.636254   1.543956
    H  -0.242008  -4.383695   0.052111
    C  -1.336616   0.877250   0.810079
    C   0.679094   0.773671   1.466691
