44
B20C2H22
    B  -0.186008  -3.163993   0.074399
    B  -1.396410   2.295946  -0.001460
    B  -0.368182   2.006099   1.445418
    B   1.335018   2.155016   0.888082
    B   1.312429   2.244761  -0.876509
    B  -0.334157   2.329194  -1.412709
    B   1.783715   0.704182  -0.073464
    B   0.577802   0.774744  -1.656034
    B  -1.326850   0.863036  -1.084384
    B  -1.733695  -0.672108  -0.047180
    B  -0.545651  -0.617303   1.582566
    B   1.360408  -0.830047   0.959374
    B   1.332312  -0.886235  -1.031208
    B  -0.547310  -0.790240  -1.643870
    B   1.361094  -2.355236   0.024927
    B   0.334731  -2.340132  -1.396949
    B  -1.326568  -2.217127  -0.849501
    B  -1.325103  -2.136780   0.923898
    B   0.327456  -2.221689   1.461687
    B   0.129234   3.114371   0.092592
    H   0.140914   4.288090   0.242820
    H  -0.654430   2.921469  -2.386097
    H   2.196291   2.775765  -1.457650
    H  -2.433958   2.843714   0.164087
    H  -0.710154   2.285288   2.540834
    H   2.122880   2.609687   1.647402
    H   1.274399   0.649078   2.470847
    H   2.959561   0.632815   0.030738
    H   0.942063   0.749125  -2.779870
    H  -2.340003   0.902718  -1.693126
    H  -2.416387   0.838513   1.269024
    H  -2.913915  -0.557128   0.008685
    H  -0.885740  -0.325082   2.672916
    H   2.287638  -0.822538   1.700632
    H   2.297457  -0.896425  -1.718154
    H  -0.922039  -0.732167  -2.766207
    H  -2.267135  -2.641408  -1.431091
    H   0.631463  -2.898292  -2.397519
    H   2.420238  -2.881105   0.093093
    H   0.620078  -2.645075   2.528463
    H  -2.225666  -2.499124   1.602636
    H  -0.273509  -4.341977   0.156901
    C  -1.481336   0.803925   0.678379
    C   0.867024   0.683676   1.442583
