44
B20C2H22
    B  -1.458729   0.869517   1.392072
    B  -1.308931  -1.129948   1.370245
    B   0.661433  -1.552486   1.374692
    B   1.680547   0.149794   1.373350
    B   0.392108   1.685527   1.371204
    B  -2.549049  -0.211952   0.260567
    B  -1.904297  -1.645593  -0.273341
    B  -0.557892  -2.453003   0.274880
    B   1.010234  -2.349320  -0.259821
    B   2.544651   0.211652  -0.269268
    B   1.906744   1.646767   0.269426
    B   0.557902   2.456509  -0.269289
    B  -1.008960   2.345388   0.268360
    B   1.453081  -0.879878  -1.391481
    B  -0.384438  -1.686678  -1.370223
    B  -1.681826  -0.146911  -1.374421
    B  -0.656713   1.553010  -1.373738
    B   1.303034   1.137148  -1.371244
    B  -0.010033   0.006533   1.974776
    B   0.010089  -0.007021  -1.974995
    H  -0.037706   0.022944   3.156499
    H   0.561165   2.380841   2.311792
    H  -2.148178   1.286226   2.253826
    H   2.444027   0.124151   2.272940
    H   1.042478  -2.212981   2.275493
    H  -1.841717  -1.608658   2.310352
    H  -0.804935  -3.592170   0.472169
    H  -2.793806  -2.399362  -0.468766
    H  -3.715357  -0.230545   0.441827
    H  -2.928891   1.762417  -0.388763
    H  -1.540863   3.382305   0.456857
    H   0.800664   3.597308  -0.462285
    H   2.799869   2.397129   0.461426
    H   3.709682   0.229410  -0.459080
    H   2.932705  -1.757879   0.387567
    H   1.541084  -3.388013  -0.440880
    H   2.143504  -1.292965  -2.254209
    H  -0.555777  -2.382733  -2.309839
    H  -2.443986  -0.120646  -2.275143
    H  -1.038255   2.214834  -2.273328
    H   1.837037   1.612985  -2.312095
    H   0.037860  -0.023536  -3.156698
    C  -2.016686   1.211454  -0.201455
    C   2.017819  -1.210891   0.200972
