44
B20C2H22
    B  -0.153563  -3.207253  -0.014350
    B  -1.373269   2.366061   0.014577
    B  -0.345738   2.332351   1.435286
    B   1.329076   2.249342   0.890941
    B   1.323815   2.221428  -0.865001
    B   1.734062   0.719075   0.011231
    B   0.581792   0.770348  -1.606737
    B  -1.322387   0.875681  -0.979716
    B   0.567475   0.793771   1.602017
    B  -1.719612  -0.720279  -0.011452
    B  -0.544675  -0.772015   1.618629
    B   1.334920  -0.875898   0.988556
    B   1.322403  -0.889810  -0.986054
    B  -0.556794  -0.770874  -1.608304
    B   1.383718  -2.387600  -0.007899
    B   0.349038  -2.331989  -1.434192
    B  -1.314405  -2.228958  -0.889526
    B   0.352233  -2.307657   1.410727
    B   0.164043   3.206988   0.017899
    H   0.175585   4.376738  -0.123827
    H  -0.582644   2.718198  -2.199527
    H   2.108280   2.742386  -1.573834
    H  -2.384033   2.958534  -0.111141
    H  -0.674839   2.864103   2.436559
    H   2.221857   2.729337   1.496533
    H   0.895043   0.705849   2.734979
    H   2.913582   0.640135  -0.006356
    H   0.907598   0.790614  -2.739846
    H  -2.274781   0.933496  -1.672959
    H  -2.289075   0.895308   1.673935
    H  -2.897891  -0.669280  -0.011166
    H  -0.950166  -0.788831   2.725811
    H   2.280672  -0.906065   1.697392
    H   2.259136  -0.865933  -1.707505
    H  -0.942037  -0.730671  -2.726177
    H  -2.255862  -2.721995  -1.398529
    H   0.623873  -2.861213  -2.453041
    H   2.413147  -2.965644   0.010983
    H   0.519655  -2.877933   2.428554
    H  -2.010946  -2.584660   1.356075
    H  -0.334861  -4.368372   0.072118
    B  -1.319409   0.865750   0.996804
    C  -0.308793   2.217035  -1.281615
    C  -1.205222  -2.139599   0.789148
