44
B20C2H22
    B  -0.177700  -3.290833  -0.046199
    B  -1.391434   2.489695  -0.018802
    B  -0.379651   2.496813   1.415414
    B   1.327647   2.291695   0.878406
    B   1.337577   2.327481  -0.916336
    B  -0.337137   2.349804  -1.443391
    B   1.733169   0.847135  -0.021420
    B   0.587869   0.812131  -1.546546
    B  -1.244377   0.884731  -0.871263
    B   0.457393   0.897802   1.534234
    B  -1.733169  -0.847135  -0.021420
    B  -0.457393  -0.897802   1.534234
    B   1.244377  -0.884731  -0.871263
    B  -0.587869  -0.812131  -1.546546
    B   1.391434  -2.489695  -0.018802
    B   0.337137  -2.349804  -1.443391
    B  -1.337577  -2.327481  -0.916336
    B  -1.327647  -2.291695   0.878406
    B   0.379651  -2.496813   1.415414
    B   0.177700   3.290833  -0.046199
    H   0.260567   4.471008  -0.038451
    H  -0.681978   2.827617  -2.466633
    H   2.229614   2.777546  -1.548074
    H  -2.465511   2.973639  -0.031191
    H  -0.692703   2.962792   2.451731
    H   2.196312   2.736593   1.544208
    H   0.724871   0.776802   2.674131
    H   2.877320   0.598093   0.100389
    H   0.939975   0.662464  -2.664459
    H  -2.279973   0.916400  -1.442913
    H  -2.021637   0.894865   1.542554
    H  -2.877320  -0.598093   0.100389
    H  -0.724871  -0.776802   2.674131
    H   2.021637  -0.894865   1.542554
    H   2.279973  -0.916400  -1.442913
    H  -0.939975  -0.662464  -2.664459
    H  -2.229614  -2.777546  -1.548074
    H   0.681978  -2.827617  -2.466633
    H   2.465511  -2.973639  -0.031191
    H   0.692703  -2.962792   2.451731
    H  -2.196312  -2.736593   1.544208
    H  -0.260567  -4.471008  -0.038451
    C  -1.166011   1.093888   0.914611
    C   1.166011  -1.093888   0.914611
