44
B20C2H22
    B  -1.435424   0.839512   1.436456
    B  -1.274614  -1.102029   1.377359
    B   0.675739  -1.596637   1.366413
    B   1.728869   0.175046   1.362143
    B   0.434542   1.678557   1.375005
    B  -1.917706  -1.638110  -0.297898
    B  -0.585000  -2.449216   0.268102
    B   0.995365  -2.362574  -0.234601
    B   2.183128  -1.308911   0.267308
    B   2.533239   0.220473  -0.276852
    B   1.928467   1.685627   0.234242
    B   0.546748   2.461227  -0.263206
    B  -1.006712   2.312306   0.303193
    B   1.475029  -0.918442  -1.366085
    B  -0.345767  -1.698320  -1.373512
    B  -1.659785  -0.126678  -1.433118
    B  -0.660037   1.550610  -1.376717
    B   1.300597   1.145196  -1.367258
    B   0.036459   0.003362   1.976814
    B   0.029942  -0.019206  -1.976994
    H  -0.028093   0.022501   3.158480
    H   0.532872   2.393101   2.312199
    H  -2.207792   1.210575   2.244173
    H   2.427623   0.237044   2.314432
    H   0.897479  -2.249584   2.327505
    H  -1.932583  -1.527892   2.259747
    H  -0.932941  -3.563306   0.459424
    H  -2.871575  -2.306177  -0.492203
    H  -3.423231  -0.250836   0.376785
    H  -2.963949   1.725369  -0.378927
    H  -1.573737   3.329332   0.498531
    H   0.722043   3.615671  -0.451273
    H   2.792491   2.469532   0.423854
    H   3.689188   0.318672  -0.504958
    H   3.181799  -1.901081   0.490702
    H   1.424693  -3.447405  -0.423475
    H   2.074285  -1.279205  -2.319835
    H  -0.572779  -2.384370  -2.309696
    H  -2.515991  -0.122401  -2.241519
    H  -1.067766   2.221632  -2.257729
    H   1.785771   1.635552  -2.328199
    H  -0.038502  -0.008211  -3.158494
    C  -2.026424   1.212961  -0.211703
    C  -2.355272  -0.202586   0.212319
