44
B20C2H22
    B  -0.168606  -3.219259   0.002592
    B  -1.367255   2.377798  -0.002780
    B  -0.339051   2.324676   1.415748
    B   1.325164   2.240652   0.880674
    B   1.334731   2.240316  -0.885215
    B  -0.345494   2.326917  -1.422291
    B   1.734199   0.733512  -0.014493
    B   0.577665   0.790887  -1.603875
    B  -1.297284   0.872917  -0.986709
    B   0.566002   0.777147   1.579839
    B  -1.734199  -0.733512   0.014493
    B  -0.577665  -0.790887   1.603875
    B   1.297284  -0.872917   0.986709
    B  -0.566002  -0.777147  -1.579839
    B   1.367255  -2.377798   0.002780
    B   0.339051  -2.324676  -1.415748
    B  -1.325164  -2.240652  -0.880674
    B  -1.334731  -2.240316   0.885215
    B   0.345494  -2.326917   1.422291
    B   0.168606   3.219259  -0.002592
    H   0.213939   4.398910   0.008333
    H  -0.673470   2.821582  -2.443858
    H   2.223668   2.697902  -1.514647
    H  -2.440525   2.865167   0.045903
    H  -0.701326   2.775485   2.443941
    H   2.210132   2.674795   1.532145
    H   0.852109   0.709798   2.723373
    H   2.902566   0.573660  -0.039287
    H   0.957200   0.671107  -2.714254
    H  -2.296727   0.870713  -1.615416
    H  -2.073154   0.883098   1.535036
    H  -2.902566  -0.573660   0.039287
    H  -0.957200  -0.671107   2.714254
    H   2.296727  -0.870713   1.615416
    H   2.073154  -0.883098  -1.535036
    H  -0.852109  -0.709798  -2.723373
    H  -2.210132  -2.674795  -1.532145
    H   0.701326  -2.775485  -2.443941
    H   2.440525  -2.865167  -0.045903
    H   0.673470  -2.821582   2.443858
    H  -2.223668  -2.697902   1.514647
    H  -0.213939  -4.398910  -0.008333
    C  -1.196278   0.908230   0.900105
    C   1.196278  -0.908230  -0.900105
