44
B20C2H22
    B  -1.516808   0.781420   1.352146
    B  -1.507385  -1.064532   1.346187
    B   1.798434   0.305824   1.336795
    B   0.489932   1.626326   1.354478
    B  -2.192487   1.319082  -0.281013
    B  -2.640351  -0.212818   0.175283
    B  -1.932615  -1.659241  -0.277341
    B  -0.597709  -2.411924   0.400135
    B   0.970460  -2.287815  -0.236706
    B   2.176236  -1.254510   0.347189
    B   2.537598   0.242836  -0.294723
    B   1.980831   1.739663   0.188813
    B   0.574444   2.494717  -0.264580
    B  -0.960751   2.254990   0.343766
    B   1.423218  -0.890091  -1.338016
    B  -0.353052  -1.631994  -1.327611
    B  -1.733144  -0.147606  -1.373556
    B  -0.662617   1.579492  -1.332201
    B   1.296830   1.160550  -1.371391
    B   0.044839  -0.129845   1.878063
    H   0.066001  -0.180145   3.058292
    H   0.591471   2.270452   2.340816
    H  -2.046021   1.168535   2.336548
    H   2.450450   0.244342   2.318674
    H   0.971087  -2.210426   2.103479
    H  -1.920461  -1.577490   2.325974
    H  -0.800499  -3.543372   0.670500
    H  -2.701717  -2.516333  -0.543228
    H  -3.814532  -0.315865   0.267379
    H  -3.141653   1.987363  -0.500615
    H  -1.413539   3.315198   0.605563
    H   0.758823   3.643874  -0.466844
    H   2.872331   2.507853   0.303496
    H   3.686882   0.230644  -0.569480
    H   3.139297  -1.895661   0.581299
    H   1.415757  -3.372140  -0.353260
    H   1.977959  -1.234506  -2.320159
    H  -0.493209  -2.279873  -2.303438
    H  -2.315778  -0.211664  -2.397320
    H  -0.915692   2.168172  -2.324423
    H   1.749843   1.539311  -2.392753
    H  -0.006568   0.019817  -2.849436
    C  -0.007252   0.021528  -1.770062
    C   0.701806  -1.593458   1.254212
