44
B20C2H22
    B  -0.164602  -3.217727  -0.000213
    B  -1.367784   2.374813  -0.001162
    B  -0.340736   2.321622   1.415531
    B   1.322336   2.236709   0.881080
    B   1.331047   2.238032  -0.882634
    B  -0.347108   2.323012  -1.419916
    B   1.731698   0.726958  -0.010488
    B   0.573100   0.784752  -1.603484
    B  -1.307829   0.871593  -0.984811
    B   0.561410   0.775611   1.588725
    B  -1.731698  -0.726958   0.010488
    B  -0.573100  -0.784752   1.603484
    B   1.307829  -0.871593   0.984811
    B  -0.561410  -0.775611  -1.588725
    B   1.367784  -2.374813   0.001162
    B   0.340736  -2.321622  -1.415531
    B  -1.322336  -2.236709  -0.881080
    B  -1.331047  -2.238032   0.882634
    B   0.347108  -2.323012   1.419916
    B   0.164602   3.217727   0.000213
    H   0.209901   4.396097   0.011234
    H  -0.671733   2.823077  -2.438580
    H   2.218769   2.697364  -1.510876
    H  -2.432559   2.879652   0.036243
    H  -0.689113   2.789331   2.440069
    H   2.205636   2.676486   1.528920
    H   0.867202   0.709017   2.726575
    H   2.902698   0.586359  -0.027669
    H   0.947620   0.683506  -2.717357
    H  -2.295588   0.870371  -1.630583
    H  -2.078367   0.897369   1.539570
    H  -2.902698  -0.586359   0.027669
    H  -0.947620  -0.683506   2.717357
    H   2.295588  -0.870371   1.630583
    H   2.078367  -0.897369  -1.539570
    H  -0.867202  -0.709017  -2.726575
    H  -2.205636  -2.676486  -1.528920
    H   0.689113  -2.789331  -2.440069
    H   2.432559  -2.879652  -0.036243
    H   0.671733  -2.823077   2.438580
    H  -2.218769  -2.697364   1.510876
    H  -0.209901  -4.396097  -0.011234
    C  -1.204089   0.909373   0.905851
    C   1.204089  -0.909373  -0.905851
