44
B20C2H22
    B  -1.459325   0.864387   1.395234
    B  -1.317609  -1.122169   1.369991
    B   0.668082  -1.554495   1.378384
    B   1.684377   0.147041   1.376389
    B   0.384354   1.690604   1.369691
    B  -2.542109  -0.208634   0.254820
    B  -1.900655  -1.644854  -0.279910
    B  -0.559381  -2.449038   0.282936
    B   1.009252  -2.341207  -0.255751
    B   2.535530   0.207959  -0.267422
    B   1.903877   1.646491   0.275137
    B   0.559629   2.454741  -0.274754
    B  -1.007104   2.335525   0.268043
    B   1.450820  -0.880777  -1.397320
    B  -0.374509  -1.691746  -1.368405
    B  -1.686303  -0.143277  -1.378321
    B  -0.660731   1.555490  -1.376758
    B   1.310131   1.133199  -1.370201
    B  -0.002812   0.002591   1.977083
    B   0.002644  -0.002624  -1.978282
    H  -0.032822   0.021867   3.158697
    H   0.555637   2.388475   2.307958
    H  -2.148357   1.279545   2.257930
    H   2.453257   0.121915   2.271202
    H   1.052009  -2.219040   2.274810
    H  -1.854853  -1.602549   2.306647
    H  -0.803647  -3.587812   0.484248
    H  -2.790618  -2.396405  -0.480350
    H  -3.709627  -0.243526   0.428054
    H  -2.937354   1.768892  -0.377257
    H  -1.525019   3.380826   0.451642
    H   0.797563   3.595713  -0.470833
    H   2.799604   2.392427   0.470631
    H   3.701456   0.243289  -0.451502
    H   2.942445  -1.763068   0.375159
    H   1.525091  -3.389124  -0.429079
    H   2.144328  -1.294788  -2.256896
    H  -0.548964  -2.391709  -2.304548
    H  -2.453525  -0.117055  -2.274567
    H  -1.044972   2.221824  -2.271673
    H   1.845571   1.612366  -2.308534
    H   0.033416  -0.021266  -3.159884
    C  -2.024077   1.216658  -0.193989
    C   2.025988  -1.215982   0.192481
