44
B20C2H22
    B  -0.178621  -3.293887  -0.049805
    B  -1.390545   2.492621  -0.022848
    B  -0.380497   2.506146   1.416245
    B   1.327528   2.297054   0.879300
    B   1.338480   2.330828  -0.914732
    B  -0.333893   2.349706  -1.445105
    B   1.729480   0.848320  -0.016967
    B   0.591501   0.813100  -1.536567
    B  -1.240522   0.885512  -0.869786
    B   0.452037   0.904362   1.537366
    B  -1.729480  -0.848320  -0.016967
    B  -0.452037  -0.904362   1.537366
    B   1.240522  -0.885512  -0.869786
    B  -0.591501  -0.813100  -1.536567
    B   1.390545  -2.492621  -0.022848
    B   0.333893  -2.349706  -1.445105
    B  -1.338480  -2.330828  -0.914732
    B  -1.327528  -2.297054   0.879300
    B   0.380497  -2.506146   1.416245
    B   0.178621   3.293887  -0.049805
    H   0.261978   4.474319  -0.044533
    H  -0.679312   2.821576  -2.470935
    H   2.231736   2.778329  -1.546840
    H  -2.464306   2.977690  -0.043945
    H  -0.697403   2.973233   2.450962
    H   2.196756   2.740467   1.545562
    H   0.719582   0.782015   2.677055
    H   2.875370   0.604409   0.102299
    H   0.940689   0.661664  -2.655197
    H  -2.276313   0.920547  -1.440618
    H  -2.027897   0.893308   1.535016
    H  -2.875370  -0.604409   0.102299
    H  -0.719582  -0.782015   2.677055
    H   2.027897  -0.893308   1.535016
    H   2.276313  -0.920547  -1.440618
    H  -0.940689  -0.661664  -2.655197
    H  -2.231736  -2.778329  -1.546840
    H   0.679312  -2.821576  -2.470935
    H   2.464306  -2.977690  -0.043945
    H   0.697403  -2.973233   2.450962
    H  -2.196756  -2.740467   1.545562
    H  -0.261978  -4.474319  -0.044533
    C  -1.169931   1.104024   0.914072
    C   1.169931  -1.104024   0.914072
