44
B20C2H22
    B  -0.178316  -3.292813  -0.048521
    B  -1.390819   2.491375  -0.020928
    B  -0.379743   2.502522   1.416070
    B   1.327802   2.295048   0.878477
    B   1.337857   2.329483  -0.915648
    B  -0.335302   2.349666  -1.444503
    B   1.730825   0.847821  -0.018884
    B   0.590034   0.812819  -1.540582
    B  -1.242181   0.885235  -0.870571
    B   0.454103   0.901868   1.536001
    B  -1.730825  -0.847821  -0.018884
    B  -0.454103  -0.901868   1.536001
    B   1.242181  -0.885235  -0.870571
    B  -0.590034  -0.812819  -1.540582
    B   1.390819  -2.491375  -0.020928
    B   0.335302  -2.349666  -1.444503
    B  -1.337857  -2.329483  -0.915648
    B  -1.327802  -2.295048   0.878477
    B   0.379743  -2.502522   1.416070
    B   0.178316   3.292813  -0.048521
    H   0.261252   4.473148  -0.042058
    H  -0.680808   2.823626  -2.469322
    H   2.230538   2.777949  -1.547781
    H  -2.464950   2.975491  -0.038231
    H  -0.695114   2.968868   2.451560
    H   2.197016   2.738693   1.544512
    H   0.722069   0.780046   2.675669
    H   2.876153   0.602280   0.101144
    H   0.940307   0.661910  -2.658933
    H  -2.277969   0.919212  -1.441578
    H  -2.024874   0.894208   1.538854
    H  -2.876153  -0.602280   0.101144
    H  -0.722069  -0.780046   2.675669
    H   2.024874  -0.894208   1.538854
    H   2.277969  -0.919212  -1.441578
    H  -0.940307  -0.661910  -2.658933
    H  -2.230538  -2.777949  -1.547781
    H   0.680808  -2.823626  -2.469322
    H   2.464950  -2.975491  -0.038231
    H   0.695114  -2.968868   2.451560
    H  -2.197016  -2.738693   1.544512
    H  -0.261252  -4.473148  -0.042058
    C  -1.167774   1.100298   0.915252
    C   1.167774  -1.100298   0.915252
