44
B20C2H22
    B  -1.617830   0.775869   1.331011
    B  -1.722135  -0.984779   1.375019
    B   1.699662   0.039745   1.305649
    B   0.457791   1.599512   1.377564
    B  -2.163492   1.287780  -0.368656
    B  -2.714704  -0.208985   0.118278
    B  -1.865079  -1.637115  -0.198228
    B  -0.502320  -2.188988   0.733473
    B   0.936131  -2.269918  -0.262973
    B   2.283321  -1.320683   0.118597
    B   2.550739   0.233012  -0.423213
    B   1.943920   1.613921   0.282346
    B   0.565878   2.471964  -0.154160
    B  -1.002793   2.239898   0.382691
    B   1.431899  -0.970416  -1.417310
    B  -0.370502  -1.537819  -1.323326
    B  -1.701822  -0.244013  -1.376781
    B  -0.569947   1.634680  -1.333943
    B   1.239102   1.255698  -1.360049
    B  -0.093445  -0.156854   1.850185
    H  -0.041420  -0.272101   3.023214
    H   0.612587   2.200349   2.383013
    H  -2.122212   1.194282   2.317376
    H   2.362423   0.036894   2.283028
    H   1.355709  -2.039064   2.053444
    H  -2.236153  -1.462946   2.325964
    H  -0.644893  -3.245902   1.241312
    H  -2.492518  -2.614071  -0.431101
    H  -3.891496  -0.294456   0.055247
    H  -3.064375   1.967834  -0.721476
    H  -1.496372   3.286398   0.629689
    H   0.800884   3.624259  -0.267197
    H   2.854120   2.327810   0.526034
    H   3.676908   0.365224  -0.755793
    H   3.266325  -1.960618   0.241561
    H   1.206822  -3.414613  -0.330512
    H   1.940140  -1.324525  -2.420881
    H  -0.531606  -2.265222  -2.239946
    H  -2.279344  -0.311675  -2.403633
    H  -0.854744   2.235400  -2.309445
    H   1.730765   1.674533  -2.348555
    H   0.026377   0.069707  -2.895888
    C   0.033514   0.056806  -1.816389
    C   1.004873  -1.466132   1.205695
