46
B21C2H23
    B   1.428035   0.594230  -1.669539
    B  -0.032975   1.659957  -1.467210
    B  -1.697783   1.186684  -1.388609
    B  -2.498164  -0.454011  -0.834991
    B   1.020348  -1.336630  -1.542691
    B   0.922064   2.067568   0.018750
    B  -0.945474   2.070377   0.058645
    B   2.407840   0.951378  -0.121587
    B  -2.449600   0.965667   0.125544
    B  -2.442887  -0.543090   0.935750
    B  -1.690107  -1.772490  -0.004371
    B   0.055143  -2.183683  -0.067037
    B   1.778997  -1.857325   0.021544
    B   2.495558  -0.567716  -0.897662
    B   2.412819  -0.485815   0.897921
    B   0.910250  -1.454043   1.463082
    B  -0.895290  -1.242530   1.560969
    B  -1.464047   0.768335   1.643043
    B   0.033904   1.730968   1.574702
    B   1.633937   1.128016   1.406927
    B   0.236327   0.102959   2.151095
    H  -0.355984   0.017047  -3.025641
    H   0.038502   2.415737  -2.368150
    H   1.897498   0.984372  -2.678077
    H   1.122230  -1.935514  -2.551079
    H  -1.104038  -1.918925  -2.173396
    H  -3.334217  -0.779300  -1.599582
    H  -2.281085   1.654093  -2.300127
    H  -1.313306   3.193650   0.082005
    H  -3.462248   1.582671   0.135906
    H  -3.403957  -0.871549   1.537636
    H  -2.274997  -2.785485  -0.152585
    H  -0.040764  -3.347762  -0.224105
    H   2.385009  -2.871789   0.009770
    H   3.451628  -0.820064  -1.545168
    H   3.369319   1.615540  -0.305138
    H   2.330567   1.684574   2.184912
    H   3.372998  -0.714189   1.547609
    H   1.165195  -2.237116   2.310824
    H  -1.198075  -1.948244   2.458202
    H  -2.073622   1.201192   2.560393
    H  -0.030932   2.612726   2.357197
    H   0.323510   0.030800   3.328939
    H   1.297728   3.174891  -0.155043
    C  -0.256618   0.078508  -1.950034
    C  -0.843530  -1.270806  -1.349248
