46
B21C2H23
    B   1.395474   0.782142  -1.620040
    B  -0.077018   1.731349  -1.544471
    B  -1.679537   1.202917  -1.404405
    B  -2.336731  -0.484641  -0.943688
    B  -0.871937  -1.514225  -1.448460
    B   0.887051  -1.223986  -1.581992
    B  -0.349602   0.093949  -2.124757
    B   0.957222   2.069749  -0.069243
    B  -0.978573   2.070396   0.020277
    B  -2.454699   0.950934   0.089875
    B  -2.411142  -0.548003   0.900907
    B  -1.714704  -1.849402   0.008163
    B  -0.008965  -2.293663   0.013370
    B   1.698563  -1.851528  -0.011996
    B   2.243922  -0.506524   1.024222
    B   0.859848  -1.554044   1.470023
    B  -0.899519  -1.269240   1.566859
    B  -1.406296   0.751735   1.602554
    B   0.048932   1.733773   1.513168
    B   1.653833   1.229161   1.389497
    B   0.340148   0.081076   2.104451
    H  -0.367288   0.042798  -3.307313
    H   0.073198   2.590272  -2.342927
    H   2.136361   1.149063  -2.459088
    H   1.337964  -1.804795  -2.504276
    H  -1.079187  -2.284478  -2.322665
    H  -3.274205  -0.735818  -1.618753
    H  -2.350065   1.771531  -2.195208
    H  -1.280634   3.208573   0.138281
    H  -3.472804   1.535977   0.232241
    H  -3.382897  -0.819863   1.514561
    H  -2.374823  -2.829593   0.036448
    H   0.032978  -3.475597   0.001177
    H   2.460285  -2.744954  -0.121202
    H   3.152294  -0.688307  -1.318575
    H   3.252978   1.307959  -0.200955
    H   2.436292   1.782626   2.076663
    H   3.305777  -0.667033   1.507300
    H   1.210362  -2.299477   2.318869
    H  -1.209927  -1.874120   2.534156
    H  -1.969361   1.163575   2.558011
    H   0.023842   2.605712   2.309315
    H   0.483135   0.051522   3.277579
    H   1.458895   3.129294  -0.201236
    C   2.278749   0.862330  -0.062187
    C   2.221521  -0.505261  -0.804238
