46
B21C2H23
    B   1.433767   0.754853  -1.627757
    B  -0.036352   1.718032  -1.580895
    B  -1.636501   1.146343  -1.426440
    B  -2.368578  -0.485277  -0.853567
    B  -0.916801  -1.462251  -1.450321
    B   0.878625  -1.246817  -1.575922
    B  -0.273131   0.098125  -2.170735
    B   0.948677   2.045919  -0.044490
    B  -0.929626   2.123375  -0.068968
    B   2.423120   0.953744  -0.063544
    B  -2.403897   0.974887   0.101460
    B  -2.338033  -0.523353   0.978833
    B  -1.686923  -1.835767   0.048373
    B   0.020974  -2.284756  -0.030223
    B   1.727188  -1.839149  -0.027524
    B   2.373687  -0.503279   0.912919
    B   0.910056  -1.487658   1.465180
    B  -0.843121  -1.435374   1.549824
    B  -0.016208   1.720698   1.508676
    B   1.583951   1.085115   1.437766
    B   0.150562   0.067971   2.122553
    H  -0.351547   0.036277  -3.348929
    H   0.090021   2.594372  -2.363470
    H   2.123035   1.133701  -2.507945
    H   1.281029  -1.875956  -2.488844
    H  -1.178334  -2.218191  -2.321675
    H  -3.347900  -0.720091  -1.470968
    H  -2.358154   1.673645  -2.201389
    H  -1.325268   3.218748   0.116449
    H  -3.400277   1.567240   0.326347
    H  -3.279861  -0.694848   1.668379
    H  -2.392730  -2.784337   0.091846
    H   0.054903  -3.465586  -0.064888
    H   2.452071  -2.764887  -0.113601
    H   3.154658  -0.736763  -1.379487
    H   3.463577   1.488591  -0.206503
    H   2.239646   1.661007   2.237130
    H   3.416346  -0.760841   1.400034
    H   1.238456  -2.192026   2.358891
    H  -1.182928  -2.021508   2.516690
    H  -1.954705   1.221133   2.336081
    H  -0.093148   2.577425   2.316383
    H   0.133342   0.082741   3.303996
    H   1.352153   3.156300  -0.092148
    C   2.259619  -0.494890  -0.820518
    C  -1.395728   0.807223   1.503235
