46
B21C2H23
    B   1.424562   0.653170  -1.604579
    B  -0.063433   1.667257  -1.488751
    B  -1.720587   1.190419  -1.383825
    B  -2.504816  -0.458447  -0.833917
    B   1.007567  -1.307181  -1.541085
    B   0.945330   2.029592  -0.029747
    B  -0.960556   2.063778   0.050844
    B   2.453092   0.933255  -0.090879
    B  -2.465134   0.957838   0.128398
    B  -2.443173  -0.543858   0.940697
    B  -1.695920  -1.777345   0.001882
    B   0.048064  -2.175911  -0.059762
    B   1.772394  -1.852433   0.011453
    B   2.508465  -0.565176  -0.891996
    B   2.426377  -0.499289   0.904276
    B   0.916785  -1.447311   1.465542
    B  -0.888602  -1.255774   1.554049
    B  -1.460550   0.788175   1.626076
    B   0.044641   1.720858   1.543567
    B   1.643795   1.115103   1.413056
    B   0.228688   0.102627   2.144993
    H  -0.340602   0.005578  -3.026313
    H  -0.001461   2.418788  -2.393992
    H   1.901591   1.050573  -2.607537
    H   1.132547  -1.905757  -2.547411
    H  -1.102644  -1.933424  -2.171711
    H  -3.339862  -0.792840  -1.596034
    H  -2.301217   1.644583  -2.303729
    H  -1.313066   3.191090   0.095582
    H  -3.481217   1.570880   0.134114
    H  -3.396834  -0.867508   1.557152
    H  -2.280890  -2.789827  -0.151959
    H  -0.038867  -3.341445  -0.213023
    H   2.366906  -2.873699  -0.019173
    H   3.441676  -0.825381  -1.568810
    H   3.412065   1.602938  -0.266924
    H   2.319767   1.681951   2.202030
    H   3.379096  -0.739960   1.561525
    H   1.171034  -2.233996   2.310548
    H  -1.191890  -1.954726   2.456472
    H  -2.061484   1.230535   2.545125
    H  -0.007148   2.615561   2.312674
    H   0.304667   0.041829   3.324635
    H   1.313781   3.141698  -0.189654
    C  -0.255168   0.070547  -1.949449
    C  -0.848063  -1.273470  -1.354135
