46
B21C2H23
    B   1.448528   0.787143  -1.606402
    B  -0.046471   1.716729  -1.533642
    B  -1.643370   1.125466  -1.413631
    B  -2.389962  -0.493637  -0.882584
    B  -0.902827  -1.467073  -1.459949
    B   0.892365  -1.265857  -1.561936
    B  -0.235258   0.100625  -2.140284
    B   0.962764   2.053067  -0.040659
    B  -0.967177   2.060775   0.024606
    B   2.447207   0.936147  -0.093389
    B  -2.444893   0.950966   0.094906
    B  -2.412423  -0.538245   0.928266
    B  -1.707353  -1.830898   0.030589
    B   0.005086  -2.257519  -0.002170
    B   1.714446  -1.824805  -0.027084
    B   2.384631  -0.499897   0.890924
    B   0.900213  -1.473039   1.461979
    B  -0.890391  -1.280678   1.570176
    B   0.036501   1.712916   1.516224
    B   1.635417   1.113364   1.410557
    B   0.222906   0.092594   2.138599
    H  -0.317257   0.056706  -3.322729
    H   0.008256   2.598245  -2.322198
    H   2.061356   1.216069  -2.525397
    H   1.212351  -1.909587  -2.502127
    H  -1.203417  -2.211029  -2.332228
    H  -3.359012  -0.742614  -1.516878
    H  -2.323194   1.679625  -2.211321
    H  -1.336722   3.181746   0.114891
    H  -3.458814   1.554119   0.205552
    H  -3.373105  -0.797909   1.569776
    H  -2.364503  -2.816576   0.064576
    H   0.014078  -3.441746  -0.005653
    H   2.380501  -2.803188  -0.061213
    H   3.298642  -0.788937  -1.487859
    H   3.469102   1.526824  -0.188910
    H   2.308457   1.666979   2.213671
    H   3.354542  -0.754868   1.519984
    H   1.209583  -2.214932   2.332537
    H  -1.196203  -1.917443   2.520289
    H  -1.975821   1.198497   2.446546
    H  -0.016906   2.590033   2.309015
    H   0.295248   0.059236   3.321123
    H   1.333514   3.174867  -0.118037
    C   2.393970  -0.533517  -0.902395
    C  -1.424878   0.785119   1.574183
