46
B21C2H23
    B   1.423234   0.817214  -1.581385
    B  -0.067683   1.743277  -1.542139
    B  -1.659287   1.120557  -1.420673
    B  -2.391648  -0.493706  -0.894833
    B  -0.901347  -1.476116  -1.462752
    B   0.888840  -1.271783  -1.563079
    B  -0.250836   0.098748  -2.127676
    B   0.945143   2.020337  -0.076323
    B  -0.982997   2.057066   0.022422
    B  -2.473782   0.954497   0.089175
    B  -2.420304  -0.534030   0.923995
    B  -1.711955  -1.826650   0.030621
    B   0.003774  -2.259304   0.007132
    B   1.722549  -1.850463  -0.035890
    B   2.423835  -0.552813  -0.925369
    B   2.411945  -0.540985   0.863481
    B   0.916087  -1.444904   1.461671
    B  -0.887148  -1.301989   1.558077
    B  -1.465563   0.844302   1.585535
    B   1.617453   1.055023   1.411076
    B   0.170601   0.077607   2.132651
    H  -0.278640   0.065916  -3.310295
    H   0.000407   2.632883  -2.315694
    H   2.107941   1.282907  -2.422126
    H   1.223685  -1.889786  -2.513499
    H  -1.195389  -2.214972  -2.337345
    H  -3.344634  -0.744677  -1.547115
    H  -2.325856   1.694714  -2.211154
    H  -1.255256   3.191717   0.198129
    H  -3.481853   1.563297   0.197518
    H  -3.349921  -0.778425   1.611609
    H  -2.367141  -2.809760   0.082297
    H   0.015342  -3.440240   0.026076
    H   2.388030  -2.826957  -0.060294
    H   3.429712  -0.692400  -1.521757
    H   3.220358   1.412213  -0.132314
    H   2.281269   1.630324   2.194362
    H   3.404741  -0.649164   1.489256
    H   1.268967  -2.101735   2.379744
    H  -1.173013  -1.929455   2.517751
    H  -1.966802   1.354276   2.524892
    H   0.054843   2.383338   2.096637
    H   0.290737   0.174333   3.302056
    H   1.385029   3.111303  -0.018226
    C   0.056057   1.571552   1.383651
    C   2.300189   0.846776  -0.069585
