46
B21C2H23
    B   1.407568   0.794044  -1.630274
    B  -0.069958   1.724113  -1.540279
    B  -1.674616   1.188006  -1.408813
    B  -2.352494  -0.490433  -0.931597
    B  -0.873415  -1.504312  -1.444228
    B   0.886382  -1.236727  -1.583406
    B  -0.326263   0.094865  -2.130081
    B   0.955668   2.066763  -0.060387
    B  -0.968908   2.065670   0.023601
    B  -2.454878   0.948452   0.088708
    B  -2.418486  -0.546068   0.904874
    B  -1.717929  -1.848148   0.013546
    B  -0.009632  -2.287830   0.025583
    B   1.697758  -1.849582  -0.017965
    B   2.269789  -0.511971   0.992988
    B   0.869289  -1.531628   1.465310
    B  -0.898621  -1.269799   1.570354
    B  -1.418270   0.759256   1.607227
    B   0.043613   1.734328   1.523200
    B   1.643859   1.206221   1.394820
    B   0.300509   0.087488   2.116752
    H  -0.344355   0.048245  -3.312889
    H   0.064803   2.591302  -2.333091
    H   2.157447   1.164613  -2.459337
    H   1.330404  -1.820234  -2.507360
    H  -1.091398  -2.266977  -2.322702
    H  -3.288149  -0.742911  -1.608326
    H  -2.341968   1.755004  -2.203182
    H  -1.282668   3.202758   0.119675
    H  -3.466583   1.546374   0.223483
    H  -3.384701  -0.820278   1.526576
    H  -2.369057  -2.834334   0.035721
    H   0.033187  -3.469531   0.013950
    H   2.454618  -2.746842  -0.128599
    H   3.155267  -0.685208  -1.327927
    H   3.246527   1.308552  -0.191674
    H   2.428013   1.754085   2.084713
    H   3.333454  -0.670822   1.472215
    H   1.221547  -2.276881   2.313986
    H  -1.197846  -1.883662   2.535148
    H  -1.988722   1.177369   2.555711
    H   0.029230   2.611975   2.313212
    H   0.458511   0.056625   3.287938
    H   1.458110   3.126737  -0.185211
    C   2.272053   0.860447  -0.062943
    C   2.221023  -0.505253  -0.818726
