46
B21C2H23
    B   1.484251   0.690238  -1.642991
    B  -0.024377   1.688942  -1.496181
    B  -1.590340   0.839504  -1.443022
    B  -2.592986  -0.531174  -0.771684
    B  -1.019113  -1.253363  -1.476403
    B   0.903075  -1.212110  -1.562901
    B   0.932926   2.055504  -0.004060
    B  -0.930993   1.995366   0.037198
    B   2.442908   0.959352  -0.066243
    B  -2.458813   0.919597   0.114260
    B  -2.470953  -0.553852   0.986370
    B  -1.741744  -1.807303   0.037705
    B  -0.012654  -2.158981  -0.086395
    B   1.708049  -1.810477  -0.027142
    B   2.367518  -0.492520   0.919679
    B   0.900151  -1.455494   1.463138
    B  -0.894981  -1.257973   1.567204
    B  -1.465878   0.797660   1.615421
    B   0.043405   1.725526   1.566443
    B   1.638844   1.116754   1.435474
    B   0.223973   0.105188   2.164959
    H  -0.146178   0.110344  -3.121619
    H   0.024675   2.504026  -2.344594
    H   2.082118   1.073029  -2.582861
    H   1.224442  -1.840617  -2.504649
    H  -1.233792  -1.915512  -2.429910
    H  -3.559599  -0.772103  -1.404688
    H  -2.158966   1.301087  -2.370932
    H  -1.324734   3.108376   0.011122
    H  -3.377015   1.664636   0.109532
    H  -3.401599  -0.830766   1.658472
    H  -2.303872  -2.846710   0.012462
    H   0.013185  -3.335035  -0.190760
    H   2.391977  -2.763068  -0.146635
    H   3.235140  -0.747550  -1.355181
    H   3.448100   1.538831  -0.276674
    H   2.339461   1.685176   2.201481
    H   3.400406  -0.770011   1.418606
    H   1.209817  -2.238568   2.292570
    H  -1.158863  -1.952411   2.486559
    H  -2.049095   1.281393   2.524901
    H   0.004646   2.621636   2.333613
    H   0.327468   0.036846   3.341450
    H   1.321459   3.163664  -0.133680
    C   2.335144  -0.489379  -0.816779
    C  -0.086885   0.126163  -2.042339
