46
B21C2H23
    B   1.448725   0.772640  -1.605344
    B  -0.046370   1.700964  -1.525247
    B  -1.647348   1.102951  -1.414878
    B  -2.403967  -0.499481  -0.884655
    B  -0.902252  -1.448409  -1.456628
    B   0.894468  -1.250011  -1.553552
    B   0.970434   2.045431  -0.042697
    B  -0.964778   2.049457   0.025675
    B   2.455547   0.932689  -0.094721
    B  -2.460734   0.937107   0.094592
    B  -2.433794  -0.544783   0.927498
    B  -1.718686  -1.824963   0.023994
    B   0.003506  -2.245418  -0.005678
    B   1.716555  -1.820341  -0.024727
    B   2.391709  -0.498761   0.891661
    B   0.904128  -1.467562   1.462870
    B  -0.896634  -1.273370   1.568191
    B  -1.455951   0.793813   1.610104
    B   0.048098   1.717091   1.522510
    B   1.649760   1.116083   1.409463
    B   0.233861   0.099358   2.139584
    H  -0.299139   0.086605  -3.204157
    H   0.004885   2.564324  -2.332855
    H   2.046102   1.191141  -2.537939
    H   1.201606  -1.879425  -2.506710
    H  -1.188048  -2.178234  -2.345078
    H  -3.361221  -0.753298  -1.537844
    H  -2.308235   1.646544  -2.235330
    H  -1.326821   3.175779   0.086560
    H  -3.476761   1.544504   0.174293
    H  -3.400450  -0.821882   1.554825
    H  -2.368258  -2.816873   0.035866
    H   0.013813  -3.429359  -0.026942
    H   2.379132  -2.801266  -0.069603
    H   3.302174  -0.793444  -1.500494
    H   3.477126   1.522809  -0.204006
    H   2.333970   1.671317   2.203559
    H   3.364433  -0.756416   1.515923
    H   1.217058  -2.216945   2.326317
    H  -1.194573  -1.927178   2.510649
    H  -2.050783   1.239098   2.535674
    H   0.009683   2.606090   2.304414
    H   0.322491   0.059035   3.322198
    H   1.345152   3.164624  -0.140347
    C   2.398833  -0.534942  -0.904787
    C  -0.228738   0.116768  -2.091906
