46
B21C2H23
    B   1.423368   0.638391  -1.616983
    B  -0.062563   1.659593  -1.487681
    B  -1.720117   1.193178  -1.383665
    B  -2.517086  -0.456607  -0.828820
    B   1.022113  -1.322035  -1.539117
    B   0.938863   2.032859  -0.023259
    B  -0.954992   2.063771   0.051462
    B   2.445007   0.937281  -0.097531
    B  -2.462696   0.959606   0.128826
    B  -2.444078  -0.544948   0.939566
    B  -1.694039  -1.773211  -0.004977
    B   0.051854  -2.175604  -0.067838
    B   1.777294  -1.853823   0.016177
    B   2.506799  -0.566452  -0.892951
    B   2.427552  -0.496868   0.902706
    B   0.914798  -1.445498   1.464392
    B  -0.891325  -1.251482   1.553888
    B  -1.463047   0.783640   1.630078
    B   0.042391   1.724997   1.550062
    B   1.642185   1.112665   1.414190
    B   0.225754   0.103849   2.149535
    H  -0.336774   0.011286  -3.028612
    H   0.006978   2.417295  -2.386913
    H   1.898588   1.031279  -2.622131
    H   1.130723  -1.913616  -2.550938
    H  -1.103064  -1.922834  -2.172890
    H  -3.348251  -0.786364  -1.596424
    H  -2.304236   1.648049  -2.300722
    H  -1.309408   3.190601   0.089120
    H  -3.475112   1.578140   0.140481
    H  -3.396656  -0.871725   1.555561
    H  -2.274399  -2.789263  -0.149793
    H  -0.035806  -3.340723  -0.221680
    H   2.375179  -2.873139  -0.003366
    H   3.445727  -0.821878  -1.563676
    H   3.403477   1.607652  -0.270964
    H   2.321347   1.678015   2.201058
    H   3.382162  -0.736241   1.556912
    H   1.170878  -2.229357   2.311059
    H  -1.192451  -1.957309   2.451344
    H  -2.067407   1.225473   2.546821
    H  -0.010682   2.618711   2.319583
    H   0.304409   0.040308   3.328410
    H   1.311094   3.142625  -0.187688
    C  -0.258633   0.073115  -1.951216
    C  -0.846007  -1.269539  -1.351097
