46
B21C2H23
    B   1.431698   0.764124  -1.619514
    B  -0.041070   1.713717  -1.538466
    B  -1.648768   1.177016  -1.422595
    B  -2.323118  -0.471009  -0.827650
    B  -0.905469  -1.481140  -1.432412
    B   0.884952  -1.267837  -1.567708
    B  -0.304682   0.093260  -2.140836
    B   0.966282   2.020560  -0.009386
    B  -0.972199   2.158944  -0.020566
    B   2.400540   0.931341  -0.059208
    B  -2.403235   0.990917   0.097420
    B  -2.163165  -0.466557   1.080547
    B  -1.653010  -1.835076   0.097425
    B   0.045585  -2.328278  -0.002971
    B   1.756778  -1.840928  -0.054831
    B   2.404824  -0.531582   0.841657
    B   0.947777  -1.441128   1.457825
    B  -0.764843  -1.623192   1.534849
    B  -0.017595   1.733849   1.521116
    B   1.523222   0.955928   1.442695
    B  -0.119293   0.041839   2.032163
    H  -0.369340   0.045795  -3.320134
    H   0.069386   2.608585  -2.302568
    H   2.089487   1.177930  -2.507611
    H   1.249438  -1.885798  -2.504238
    H  -1.217018  -2.226458  -2.295413
    H  -3.318260  -0.725773  -1.409285
    H  -2.363945   1.685287  -2.212931
    H  -1.355192   3.262842   0.124282
    H  -3.472355   1.479241   0.217663
    H  -3.089053  -0.660500   1.786693
    H  -2.420974  -2.733061   0.150359
    H   0.086896  -3.506162  -0.080749
    H   2.477693  -2.771459  -0.122615
    H   3.187813  -0.725172  -1.427055
    H   3.441640   1.477428  -0.149664
    H   2.179365   1.449782   2.293156
    H   3.433553  -0.771904   1.364738
    H   1.352088  -2.030444   2.400835
    H  -1.051075  -2.296986   2.460671
    H  -2.039664   1.588750   2.130025
    H   0.030937   2.591437   2.330176
    H  -0.170240   0.046402   3.212770
    H   1.395888   3.120356  -0.048436
    C   2.294336  -0.507961  -0.863359
    C  -1.466905   1.086937   1.363435
