46
B21C2H23
    B   1.424080   0.812054  -1.585321
    B  -0.065635   1.742568  -1.546288
    B  -1.656658   1.115408  -1.417995
    B  -2.399092  -0.495163  -0.892121
    B  -0.901833  -1.473332  -1.463242
    B   0.892147  -1.265805  -1.565671
    B  -0.245930   0.100052  -2.130700
    B   0.941904   2.029756  -0.083149
    B  -0.979595   2.051928   0.020732
    B  -2.470168   0.953641   0.091729
    B  -2.427363  -0.538285   0.920658
    B  -1.717032  -1.829169   0.026050
    B  -0.000800  -2.261927   0.002043
    B   1.716471  -1.850205  -0.033297
    B   2.422577  -0.550714  -0.913511
    B   2.384411  -0.534155   0.884208
    B   0.901615  -1.469643   1.456027
    B  -0.893839  -1.284313   1.561773
    B  -1.450554   0.813679   1.592607
    B   1.627876   1.093576   1.404765
    B   0.210134   0.073095   2.125815
    H  -0.277338   0.066636  -3.313210
    H  -0.000237   2.631105  -2.321293
    H   2.112628   1.273224  -2.425401
    H   1.229331  -1.883173  -2.515492
    H  -1.194205  -2.212407  -2.338344
    H  -3.352537  -0.743271  -1.544769
    H  -2.324410   1.692414  -2.205685
    H  -1.259934   3.183995   0.200830
    H  -3.472627   1.570921   0.203609
    H  -3.359242  -0.780401   1.605768
    H  -2.368503  -2.814667   0.077030
    H   0.006905  -3.443105   0.015980
    H   2.388581  -2.822118  -0.060900
    H   3.433190  -0.694802  -1.500765
    H   3.224772   1.407070  -0.136268
    H   2.291955   1.677376   2.181176
    H   3.373723  -0.642231   1.515844
    H   1.250158  -2.136195   2.368868
    H  -1.183636  -1.904600   2.525078
    H  -1.948864   1.318067   2.536580
    H   0.043759   2.381315   2.096802
    H   0.333659   0.170217   3.294786
    H   1.380322   3.121601  -0.029173
    C   0.061043   1.572000   1.381663
    C   2.298502   0.851845  -0.067529
