46
B21C2H23
    B   1.411594   0.795894  -1.581687
    B  -0.068358   1.739847  -1.538225
    B  -1.670469   1.161163  -1.407411
    B  -2.383646  -0.493165  -0.916506
    B  -0.910861  -1.497449  -1.479740
    B   0.867565  -1.245135  -1.554024
    B  -0.284241   0.101834  -2.109013
    B   0.954251   2.085853  -0.066650
    B  -0.990323   2.060136   0.032287
    B  -2.462145   0.944288   0.091513
    B  -2.416737  -0.553017   0.915719
    B  -1.720914  -1.835474   0.001835
    B  -0.007651  -2.288112  -0.039152
    B   2.382010  -0.540760  -0.873491
    B   2.253944  -0.474282   0.969216
    B   0.839779  -1.545568   1.461630
    B  -0.900566  -1.255979   1.556827
    B  -1.406668   0.765962   1.586616
    B   0.059365   1.743131   1.510377
    B   1.658103   1.245023   1.381912
    B   0.352405   0.083403   2.082636
    H  -0.260713   0.035793  -3.291576
    H   0.022131   2.609031  -2.332931
    H   2.114662   1.185922  -2.446115
    H   1.294902  -1.919254  -2.422436
    H  -1.167225  -2.250785  -2.353950
    H  -3.331537  -0.748518  -1.574926
    H  -2.337977   1.709383  -2.215129
    H  -1.320571   3.190519   0.147192
    H  -3.481165   1.530830   0.219941
    H  -3.370502  -0.834872   1.552437
    H  -2.323006  -2.852018   0.057663
    H   0.090491  -3.463681  -0.039669
    H   2.218352  -2.581223  -0.046237
    H   3.397041  -0.827294  -1.392398
    H   3.258632   1.353367  -0.174447
    H   2.430740   1.758485   2.110266
    H   3.248504  -0.735960   1.539643
    H   1.245630  -2.321200   2.251587
    H  -1.182248  -1.873703   2.525324
    H  -1.957633   1.172743   2.550897
    H   0.022653   2.600471   2.321483
    H   0.494810   0.024317   3.254982
    H   1.443556   3.152559  -0.189063
    C   1.592744  -1.700037  -0.009526
    C   2.301001   0.861393  -0.067384
