46
B21C2H23
    B   1.431842   0.758133  -1.620430
    B  -0.038942   1.717769  -1.578643
    B  -1.637818   1.141912  -1.428348
    B  -2.374795  -0.487588  -0.857130
    B  -0.917831  -1.462419  -1.454512
    B   0.878333  -1.243472  -1.573490
    B  -0.266716   0.099013  -2.169877
    B   0.951954   2.044840  -0.048113
    B  -0.936751   2.109095  -0.057029
    B   2.424470   0.944387  -0.066459
    B  -2.408395   0.970793   0.098008
    B  -2.350672  -0.526533   0.965923
    B  -1.687005  -1.836466   0.045784
    B   0.021101  -2.277939  -0.031727
    B   1.722899  -1.830103  -0.031084
    B   2.371929  -0.502964   0.915098
    B   0.905822  -1.487369   1.461658
    B  -0.851524  -1.399064   1.556021
    B  -0.008680   1.714187   1.501821
    B   1.590704   1.088596   1.434261
    B   0.170050   0.070458   2.130373
    H  -0.345491   0.038425  -3.348052
    H   0.085540   2.595730  -2.359162
    H   2.120617   1.137014  -2.501052
    H   1.282165  -1.869157  -2.488135
    H  -1.180212  -2.218341  -2.325163
    H  -3.358018  -0.721895  -1.468562
    H  -2.354172   1.677100  -2.202596
    H  -1.327496   3.206831   0.124429
    H  -3.398656   1.572104   0.324855
    H  -3.287358  -0.697666   1.662133
    H  -2.381211  -2.792655   0.099145
    H   0.056376  -3.458614  -0.059153
    H   2.444389  -2.758994  -0.114965
    H   3.154360  -0.738113  -1.381832
    H   3.463206   1.484480  -0.204188
    H   2.246315   1.662194   2.234813
    H   3.408440  -0.761787   1.413954
    H   1.229681  -2.202324   2.348010
    H  -1.190049  -1.980757   2.525723
    H  -1.935799   1.188490   2.333266
    H  -0.097058   2.570171   2.309088
    H   0.144860   0.090571   3.310992
    H   1.350370   3.156320  -0.098090
    C   2.262187  -0.494478  -0.819205
    C  -1.383252   0.783949   1.491937
