46
B21C2H23
    B   1.423349   0.818915  -1.580419
    B  -0.067937   1.743124  -1.542861
    B  -1.659366   1.121326  -1.420135
    B  -2.390982  -0.493797  -0.894654
    B  -0.900630  -1.477126  -1.462951
    B   0.889648  -1.271886  -1.563572
    B  -0.251475   0.098165  -2.127807
    B   0.944577   2.021934  -0.077167
    B  -0.984210   2.057646   0.021803
    B  -2.473073   0.954495   0.089529
    B  -2.418743  -0.534300   0.925043
    B  -1.712076  -1.827173   0.030346
    B   0.003300  -2.262630   0.006237
    B   1.721065  -1.850087  -0.035303
    B   2.422033  -0.552152  -0.923799
    B   2.406808  -0.539756   0.867304
    B   0.913061  -1.452708   1.460648
    B  -0.886890  -1.302526   1.558044
    B  -1.463787   0.844477   1.585629
    B   1.619799   1.061637   1.410565
    B   0.177338   0.076462   2.128693
    H  -0.279098   0.065296  -3.310407
    H  -0.000042   2.632410  -2.316819
    H   2.108702   1.284000  -2.420955
    H   1.225096  -1.888788  -2.514434
    H  -1.194853  -2.216597  -2.336970
    H  -3.344229  -0.744360  -1.546717
    H  -2.326251   1.696059  -2.209936
    H  -1.256271   3.192176   0.198523
    H  -3.481798   1.562092   0.198611
    H  -3.349187  -0.777925   1.611760
    H  -2.368604  -2.809417   0.081651
    H   0.013653  -3.443604   0.023124
    H   2.388528  -2.825289  -0.061314
    H   3.429154  -0.693006  -1.517835
    H   3.222132   1.410043  -0.132563
    H   2.282772   1.640124   2.192145
    H   3.398527  -0.648574   1.494716
    H   1.266228  -2.108468   2.379306
    H  -1.174330  -1.927271   2.519068
    H  -1.964069   1.353207   2.526087
    H   0.054283   2.383065   2.096053
    H   0.295686   0.172212   3.298413
    H   1.384287   3.113038  -0.020213
    C   0.057266   1.571862   1.382310
    C   2.300320   0.847537  -0.068483
