46
B21C2H23
    B   1.428886   0.585051  -1.677927
    B  -0.028453   1.656010  -1.463638
    B  -1.697787   1.190408  -1.387757
    B  -2.497586  -0.453394  -0.835593
    B   1.024611  -1.339049  -1.543613
    B   0.920344   2.076406   0.024193
    B  -0.943654   2.069488   0.060856
    B   2.401517   0.955536  -0.124914
    B  -2.449583   0.966093   0.124996
    B  -2.441709  -0.543627   0.935324
    B  -1.690998  -1.772815  -0.007376
    B   0.053951  -2.186005  -0.067052
    B   1.777570  -1.858342   0.022494
    B   2.492900  -0.567033  -0.894472
    B   2.399403  -0.480971   0.904308
    B   0.905828  -1.464552   1.461628
    B  -0.894662  -1.241799   1.560166
    B  -1.459068   0.764011   1.641513
    B   0.034775   1.733035   1.578660
    B   1.636320   1.142697   1.403948
    B   0.249882   0.101147   2.146644
    H  -0.358768   0.018766  -3.025775
    H   0.042240   2.412907  -2.363849
    H   1.898620   0.974915  -2.686419
    H   1.124804  -1.942165  -2.549617
    H  -1.103081  -1.920073  -2.175062
    H  -3.335553  -0.777307  -1.598785
    H  -2.278138   1.659878  -2.299987
    H  -1.315137   3.191716   0.084730
    H  -3.462332   1.582767   0.137011
    H  -3.403324  -0.870435   1.537168
    H  -2.276636  -2.785167  -0.157271
    H  -0.042726  -3.349854  -0.225586
    H   2.386647  -2.870949   0.009804
    H   3.454478  -0.818853  -1.534076
    H   3.366753   1.613522  -0.311705
    H   2.336304   1.699978   2.178254
    H   3.358888  -0.707227   1.555901
    H   1.159967  -2.249370   2.307916
    H  -1.201165  -1.943398   2.459366
    H  -2.067042   1.192981   2.561761
    H  -0.036185   2.611433   2.364348
    H   0.337988   0.026923   3.324284
    H   1.292853   3.184149  -0.153830
    C  -0.256404   0.077362  -1.950171
    C  -0.845830  -1.270930  -1.350504
