46
B21C2H23
    B   1.422842   0.642778  -1.611494
    B  -0.064084   1.661666  -1.488460
    B  -1.721970   1.193325  -1.382798
    B  -2.513563  -0.456850  -0.830188
    B   1.018219  -1.316633  -1.540513
    B   0.941311   2.030412  -0.026961
    B  -0.957844   2.063375   0.051578
    B   2.448612   0.934996  -0.094693
    B  -2.463800   0.958520   0.129319
    B  -2.443868  -0.544459   0.940555
    B  -1.695096  -1.774730  -0.002253
    B   0.050363  -2.173985  -0.065542
    B   1.775170  -1.853372   0.014238
    B   2.508783  -0.566059  -0.892070
    B   2.426839  -0.497926   0.903279
    B   0.915651  -1.445626   1.464504
    B  -0.890044  -1.253515   1.553774
    B  -1.461722   0.785680   1.628343
    B   0.043528   1.722928   1.547007
    B   1.642824   1.113722   1.413337
    B   0.227066   0.103243   2.147466
    H  -0.335905   0.007404  -3.028070
    H   0.002503   2.415737  -2.391102
    H   1.900069   1.040574  -2.614044
    H   1.133146  -1.912353  -2.549340
    H  -1.102446  -1.921406  -2.175844
    H  -3.345099  -0.789065  -1.596610
    H  -2.304392   1.646718  -2.301777
    H  -1.310788   3.190591   0.093711
    H  -3.477786   1.575051   0.137851
    H  -3.396411  -0.869312   1.557864
    H  -2.276699  -2.789505  -0.152481
    H  -0.037058  -3.339705  -0.216545
    H   2.370565  -2.874204  -0.009172
    H   3.444920  -0.823358  -1.566022
    H   3.406293   1.606394  -0.269652
    H   2.320458   1.679828   2.201191
    H   3.380149  -0.737262   1.559805
    H   1.170524  -2.231084   2.310241
    H  -1.191722  -1.955953   2.453821
    H  -2.064051   1.227554   2.546562
    H  -0.008487   2.617115   2.316339
    H   0.304535   0.041218   3.326721
    H   1.311603   3.141403  -0.188815
    C  -0.257579   0.068800  -1.950175
    C  -0.845852  -1.268806  -1.352591
