46
B21C2H23
    B   1.415590   0.802393  -1.579712
    B  -0.068233   1.739223  -1.536605
    B  -1.668519   1.149960  -1.409545
    B  -2.393999  -0.496311  -0.910330
    B  -0.914675  -1.489374  -1.480214
    B   0.866272  -1.248104  -1.552396
    B  -0.272048   0.103765  -2.112796
    B   0.955992   2.086386  -0.066246
    B  -0.992585   2.055559   0.033618
    B  -2.465083   0.942264   0.090832
    B  -2.419579  -0.553818   0.918854
    B  -1.722896  -1.834721   0.002871
    B  -0.009175  -2.285842  -0.040537
    B   2.383177  -0.540728  -0.874357
    B   2.255231  -0.474648   0.967915
    B   0.839387  -1.544597   1.461430
    B  -0.900589  -1.254205   1.556005
    B  -1.407784   0.768754   1.583832
    B   0.060232   1.742810   1.509982
    B   1.658253   1.243279   1.382231
    B   0.353836   0.083458   2.083261
    H  -0.247036   0.038168  -3.295231
    H   0.018211   2.610686  -2.329290
    H   2.119036   1.193659  -2.443307
    H   1.292362  -1.923563  -2.420370
    H  -1.172128  -2.240251  -2.356307
    H  -3.342423  -0.752754  -1.567470
    H  -2.334143   1.696232  -2.220260
    H  -1.323349   3.186004   0.146119
    H  -3.482017   1.533024   0.216287
    H  -3.370834  -0.835532   1.559340
    H  -2.321050  -2.853651   0.057632
    H   0.089163  -3.461349  -0.042014
    H   2.216585  -2.581214  -0.047463
    H   3.397064  -0.828002  -1.394967
    H   3.260801   1.352720  -0.172856
    H   2.430726   1.757513   2.110234
    H   3.249231  -0.737228   1.538882
    H   1.245517  -2.321329   2.250163
    H  -1.180196  -1.872195   2.525033
    H  -1.957122   1.177541   2.548205
    H   0.024522   2.600901   2.320356
    H   0.494656   0.023835   3.255728
    H   1.444341   3.153528  -0.187956
    C   1.592202  -1.699284  -0.010643
    C   2.302787   0.860898  -0.067640
