46
B21C2H23
    B   1.423527   0.819278  -1.580483
    B  -0.067644   1.744199  -1.545904
    B  -1.658491   1.120320  -1.418893
    B  -2.392390  -0.493873  -0.893925
    B  -0.900652  -1.475933  -1.462309
    B   0.889686  -1.270447  -1.563599
    B  -0.250359   0.098355  -2.128301
    B   0.943289   2.023348  -0.079434
    B  -0.983832   2.057809   0.020347
    B  -2.472033   0.955168   0.090584
    B  -2.419042  -0.534873   0.924221
    B  -1.713162  -1.827095   0.028834
    B   0.001408  -2.264261   0.005510
    B   1.718959  -1.850389  -0.034945
    B   2.420520  -0.551634  -0.920824
    B   2.399538  -0.538069   0.873825
    B   0.909252  -1.461524   1.459758
    B  -0.888693  -1.300754   1.559207
    B  -1.460198   0.836444   1.587918
    B   1.622418   1.072983   1.408181
    B   0.187606   0.075530   2.125426
    H  -0.278105   0.064457  -3.310873
    H   0.000271   2.633445  -2.319761
    H   2.110506   1.282881  -2.420515
    H   1.226606  -1.886905  -2.514203
    H  -1.193565  -2.215436  -2.336820
    H  -3.345887  -0.744125  -1.545682
    H  -2.325434   1.696136  -2.208015
    H  -1.258432   3.191431   0.198801
    H  -3.480553   1.562799   0.200760
    H  -3.350326  -0.777798   1.610083
    H  -2.369521  -2.809482   0.080133
    H   0.011106  -3.445328   0.020094
    H   2.390057  -2.823148  -0.061912
    H   3.428704  -0.694505  -1.512612
    H   3.223082   1.409435  -0.133590
    H   2.285232   1.653159   2.188552
    H   3.389983  -0.648794   1.502906
    H   1.263110  -2.117351   2.378089
    H  -1.177525  -1.922873   2.521467
    H  -1.958820   1.344293   2.529768
    H   0.051066   2.382790   2.094660
    H   0.307383   0.169585   3.295143
    H   1.382411   3.114867  -0.024501
    C   0.057907   1.571799   1.380684
    C   2.300741   0.847948  -0.067554
