46
B21C2H23
    B   1.489942   0.670659  -1.668644
    B  -0.016537   1.678419  -1.467846
    B  -1.594358   0.811107  -1.468381
    B  -2.590464  -0.530420  -0.772734
    B  -1.029880  -1.254706  -1.484272
    B   0.901882  -1.220844  -1.568939
    B   0.922774   2.069906   0.027859
    B  -0.925433   1.995334   0.065659
    B   2.424020   0.968447  -0.078395
    B  -2.453606   0.925788   0.102837
    B  -2.471447  -0.550059   0.980742
    B  -1.743391  -1.809023   0.040312
    B  -0.013276  -2.154223  -0.081547
    B   1.704949  -1.806550  -0.031862
    B   2.380820  -0.490126   0.906564
    B   0.906648  -1.440586   1.467288
    B  -0.892340  -1.254122   1.560014
    B  -1.464954   0.814385   1.599749
    B   0.049317   1.732147   1.598558
    B   1.637405   1.106538   1.441348
    B   0.213114   0.107052   2.174929
    H  -0.145499   0.120779  -3.122786
    H   0.025963   2.497812  -2.312972
    H   2.081059   1.055217  -2.611553
    H   1.220217  -1.857486  -2.506080
    H  -1.239091  -1.916606  -2.438892
    H  -3.566135  -0.773534  -1.391860
    H  -2.145662   1.277603  -2.403328
    H  -1.323529   3.106579   0.022952
    H  -3.371437   1.670890   0.087218
    H  -3.401508  -0.824125   1.654538
    H  -2.301469  -2.850349   0.020386
    H   0.013495  -3.330732  -0.180327
    H   2.385772  -2.761996  -0.146953
    H   3.240416  -0.743943  -1.355474
    H   3.424638   1.556215  -0.289384
    H   2.350270   1.660713   2.206895
    H   3.417844  -0.768309   1.395504
    H   1.218901  -2.222090   2.297229
    H  -1.153709  -1.948010   2.480881
    H  -2.059396   1.295980   2.503698
    H   0.015635   2.620177   2.375271
    H   0.307889   0.028365   3.351551
    H   1.314081   3.175376  -0.114233
    C   2.336499  -0.487258  -0.821683
    C  -0.080722   0.123469  -2.043541
