46
B21C2H23
    B   1.419938   0.807202  -1.579582
    B  -0.068509   1.738669  -1.538013
    B  -1.666932   1.135841  -1.413239
    B  -2.405761  -0.498557  -0.899563
    B  -0.920041  -1.473643  -1.478882
    B   0.862143  -1.250763  -1.550822
    B  -0.266912   0.110039  -2.127718
    B   0.951771   2.058301  -0.056541
    B  -0.988303   2.064129   0.027977
    B  -2.465686   0.943285   0.093999
    B  -2.428853  -0.547648   0.923274
    B  -1.724590  -1.828670   0.012756
    B  -0.004469  -2.254521  -0.019929
    B   2.395572  -0.542438  -0.906769
    B   2.352871  -0.497872   0.907152
    B   0.876325  -1.475487   1.469177
    B  -0.892634  -1.273057   1.554360
    B  -1.444088   0.795554   1.595698
    B   0.045739   1.736774   1.511971
    B   1.632685   1.145853   1.402493
    B   0.241227   0.106250   2.123640
    H  -0.226445   0.037273  -3.309029
    H   0.020280   2.610903  -2.329583
    H   2.120531   1.213741  -2.438553
    H   1.278849  -1.939447  -2.413025
    H  -1.175770  -2.229788  -2.350922
    H  -3.349418  -0.759422  -1.561639
    H  -2.330288   1.674592  -2.231082
    H  -1.310704   3.198172   0.120489
    H  -3.478012   1.545075   0.207146
    H  -3.372624  -0.835741   1.572616
    H  -2.311108  -2.854125   0.063976
    H   0.096151  -3.429934  -0.018349
    H   2.206655  -2.588014  -0.046891
    H   3.398576  -0.826235  -1.449295
    H   3.244681   1.377522  -0.161515
    H   2.397961   1.650056   2.146158
    H   3.353786  -0.763195   1.462641
    H   1.285473  -2.235747   2.272718
    H  -1.157806  -1.924778   2.504629
    H  -2.008996   1.218359   2.545530
    H   0.047119   2.609600   2.307626
    H   0.404066   0.041402   3.293169
    H   1.451741   3.122414  -0.154267
    C   1.608836  -1.686865  -0.012808
    C   2.304682   0.848798  -0.070884
