46
B21C2H23
    B   1.424827   0.604664  -1.658315
    B  -0.039464   1.661966  -1.470813
    B  -1.702171   1.186141  -1.388238
    B  -2.501145  -0.452553  -0.833714
    B   1.020713  -1.338875  -1.541306
    B   0.927575   2.059732   0.010150
    B  -0.947537   2.070622   0.055804
    B   2.415333   0.946922  -0.116380
    B  -2.453626   0.965694   0.126934
    B  -2.444108  -0.542996   0.936057
    B  -1.687031  -1.770522  -0.004102
    B   0.056640  -2.184160  -0.066221
    B   1.779748  -1.856496   0.022098
    B   2.495679  -0.567827  -0.899810
    B   2.422219  -0.488756   0.895232
    B   0.912664  -1.449407   1.464345
    B  -0.895317  -1.244031   1.561457
    B  -1.465218   0.771308   1.641535
    B   0.033776   1.729138   1.567770
    B   1.633296   1.117485   1.409511
    B   0.229682   0.104264   2.151698
    H  -0.353907   0.016336  -3.025707
    H   0.030122   2.416902  -2.372523
    H   1.896971   0.996445  -2.665100
    H   1.126063  -1.933118  -2.552024
    H  -1.103346  -1.919302  -2.172948
    H  -3.333030  -0.784893  -1.599751
    H  -2.284870   1.657497  -2.298083
    H  -1.312577   3.194503   0.084360
    H  -3.466188   1.582906   0.135507
    H  -3.403494  -0.873507   1.539471
    H  -2.273728  -2.782610  -0.152488
    H  -0.039558  -3.348299  -0.222373
    H   2.383827  -2.872228   0.007069
    H   3.448410  -0.821280  -1.551771
    H   3.375231   1.613651  -0.298278
    H   2.325201   1.676629   2.189949
    H   3.381712  -0.719666   1.544950
    H   1.168044  -2.230568   2.313744
    H  -1.197806  -1.950632   2.457953
    H  -2.074110   1.208097   2.557658
    H  -0.024744   2.614306   2.346933
    H   0.314235   0.034348   3.329908
    H   1.301595   3.167912  -0.160866
    C  -0.260412   0.079437  -1.949705
    C  -0.840468  -1.271316  -1.349283
