46
B21C2H23
    B   1.431189   0.745327  -1.626418
    B  -0.025380   1.707011  -1.553268
    B  -1.635862   1.177767  -1.420136
    B  -2.319215  -0.466364  -0.835762
    B  -0.897463  -1.472304  -1.436696
    B   0.884522  -1.256834  -1.561828
    B  -0.295027   0.093986  -2.141804
    B   0.956028   2.025554  -0.021775
    B  -0.953368   2.167115  -0.044065
    B   2.388023   0.926529  -0.067650
    B  -2.385875   0.986477   0.109719
    B  -2.195291  -0.476696   1.060163
    B  -1.661808  -1.830124   0.077186
    B   0.042644  -2.312716  -0.010152
    B   1.747820  -1.826011  -0.049951
    B   2.384177  -0.521584   0.840580
    B   0.940313  -1.452152   1.469775
    B  -0.789261  -1.592231   1.556881
    B  -0.029761   1.732372   1.515126
    B   1.530912   0.993560   1.433166
    B  -0.070195   0.054633   2.075336
    H  -0.363517   0.041945  -3.320411
    H   0.083727   2.589570  -2.330983
    H   2.086567   1.149278  -2.520480
    H   1.246109  -1.877037  -2.497877
    H  -1.212363  -2.212642  -2.302084
    H  -3.311313  -0.713764  -1.424524
    H  -2.353112   1.684963  -2.208518
    H  -1.336481   3.272636   0.086712
    H  -3.449356   1.486489   0.228467
    H  -3.143335  -0.682928   1.732309
    H  -2.417780  -2.738074   0.114397
    H   0.087524  -3.489869  -0.091755
    H   2.467549  -2.757472  -0.118335
    H   3.187352  -0.727352  -1.418891
    H   3.429409   1.471390  -0.163035
    H   2.198447   1.503760   2.263457
    H   3.402066  -0.759258   1.385831
    H   1.344709  -2.070325   2.392684
    H  -1.092162  -2.247699   2.489241
    H  -2.027365   1.472021   2.239664
    H   0.005964   2.602563   2.310727
    H  -0.096839   0.057460   3.256627
    H   1.382071   3.126519  -0.062809
    C   2.289950  -0.507786  -0.865006
    C  -1.455235   0.996160   1.456462
