46
B21C2H23
    B   1.433250   0.765640  -1.605281
    B  -0.043775   1.712181  -1.559272
    B  -1.638599   1.133795  -1.422023
    B  -2.380652  -0.487781  -0.866348
    B  -0.910338  -1.460283  -1.458124
    B   0.882526  -1.243331  -1.563657
    B  -0.249055   0.100745  -2.154792
    B   0.954307   2.040193  -0.051545
    B  -0.955429   2.077313  -0.014759
    B   2.425513   0.923489  -0.079846
    B  -2.418062   0.962340   0.096523
    B  -2.372950  -0.529797   0.945060
    B  -1.688710  -1.832373   0.040379
    B   0.019307  -2.260934  -0.020800
    B   1.716714  -1.812226  -0.034643
    B   2.366759  -0.502293   0.904767
    B   0.899973  -1.479639   1.457607
    B  -0.869401  -1.325446   1.569287
    B   0.007328   1.701356   1.496165
    B   1.603771   1.093240   1.419336
    B   0.193914   0.077124   2.136629
    H  -0.326454   0.047526  -3.332405
    H   0.054429   2.590647  -2.340260
    H   2.096093   1.158446  -2.498049
    H   1.260270  -1.866775  -2.489699
    H  -1.189010  -2.208056  -2.328259
    H  -3.361863  -0.724288  -1.476501
    H  -2.335169   1.682805  -2.201335
    H  -1.331684   3.184383   0.129144
    H  -3.411277   1.570201   0.281316
    H  -3.311017  -0.732473   1.628255
    H  -2.357756  -2.803445   0.096446
    H   0.052023  -3.440087  -0.038746
    H   2.418568  -2.756213  -0.101751
    H   3.181314  -0.748810  -1.409531
    H   3.456579   1.481238  -0.196593
    H   2.263750   1.654861   2.220730
    H   3.369251  -0.759224   1.466776
    H   1.218894  -2.210859   2.328479
    H  -1.191383  -1.921662   2.534043
    H  -1.914970   1.167539   2.341946
    H  -0.078251   2.562311   2.296759
    H   0.199616   0.081219   3.316179
    H   1.339269   3.153126  -0.115777
    C   2.299974  -0.505142  -0.844311
    C  -1.377879   0.763283   1.498776
