46
B21C2H23
    B   1.423531   0.818448  -1.581138
    B  -0.067222   1.745201  -1.547551
    B  -1.657625   1.119220  -1.418132
    B  -2.394095  -0.493862  -0.893636
    B  -0.901001  -1.475300  -1.462183
    B   0.889662  -1.269703  -1.563660
    B  -0.249110   0.098703  -2.128758
    B   0.942790   2.024405  -0.081073
    B  -0.982825   2.057407   0.019656
    B  -2.471334   0.955316   0.091364
    B  -2.420290  -0.535582   0.923059
    B  -1.714348  -1.827613   0.027758
    B   0.000227  -2.264748   0.005315
    B   1.717793  -1.851159  -0.034954
    B   2.420367  -0.551412  -0.918698
    B   2.394568  -0.536985   0.877433
    B   0.906934  -1.465108   1.459371
    B  -0.890436  -1.298403   1.560616
    B  -1.457692   0.829557   1.589634
    B   1.623613   1.080304   1.406193
    B   0.193793   0.074982   2.124317
    H  -0.277852   0.064481  -3.311290
    H   0.000720   2.634629  -2.321101
    H   2.111350   1.281203  -2.420971
    H   1.227950  -1.885857  -2.513991
    H  -1.193076  -2.213946  -2.337730
    H  -3.347700  -0.743315  -1.545468
    H  -2.324734   1.695325  -2.207019
    H  -1.259003   3.190458   0.199357
    H  -3.478965   1.564187   0.202543
    H  -3.352262  -0.778340   1.608075
    H  -2.369603  -2.810713   0.079111
    H   0.010184  -3.445855   0.019713
    H   2.390628  -2.822685  -0.062097
    H   3.428959  -0.694564  -1.509717
    H   3.223839   1.408774  -0.133649
    H   2.286864   1.660748   2.185923
    H   3.384612  -0.647928   1.507180
    H   1.260773  -2.122623   2.376540
    H  -1.179520  -1.919340   2.523505
    H  -1.955239   1.337051   2.532293
    H   0.049003   2.382409   2.094252
    H   0.315393   0.169880   3.293783
    H   1.381223   3.116266  -0.026488
    C   0.058044   1.571752   1.379996
    C   2.300819   0.848198  -0.067388
