46
B21C2H23
    B   1.398134   0.783759  -1.622687
    B  -0.075415   1.728823  -1.542724
    B  -1.679188   1.200070  -1.405566
    B  -2.339100  -0.485110  -0.939727
    B  -0.870884  -1.512064  -1.446914
    B   0.887922  -1.228248  -1.585919
    B  -0.344266   0.094434  -2.125360
    B   0.955048   2.072465  -0.065084
    B  -0.977106   2.070192   0.020528
    B  -2.452592   0.950661   0.089540
    B  -2.411708  -0.547413   0.899820
    B  -1.715917  -1.848065   0.008139
    B  -0.011623  -2.295169   0.017733
    B   1.695850  -1.851257  -0.014699
    B   2.249716  -0.506802   1.014919
    B   0.861233  -1.548347   1.469688
    B  -0.900331  -1.268792   1.568468
    B  -1.407824   0.751587   1.601998
    B   0.046698   1.734636   1.517422
    B   1.650386   1.223783   1.392419
    B   0.330868   0.082710   2.108075
    H  -0.361429   0.043093  -3.307975
    H   0.073390   2.587726  -2.341670
    H   2.138410   1.152957  -2.461187
    H   1.339603  -1.808176  -2.508262
    H  -1.076931  -2.282837  -2.321188
    H  -3.275622  -0.736764  -1.615976
    H  -2.348392   1.768231  -2.197705
    H  -1.281945   3.207867   0.135943
    H  -3.468775   1.539338   0.231505
    H  -3.382560  -0.819207   1.515082
    H  -2.374525  -2.829321   0.037044
    H   0.030918  -3.476961   0.005623
    H   2.457498  -2.745025  -0.121994
    H   3.151364  -0.686747  -1.320921
    H   3.250032   1.309170  -0.202461
    H   2.435410   1.771504   2.081366
    H   3.310887  -0.670115   1.498316
    H   1.217248  -2.289471   2.320138
    H  -1.209290  -1.876076   2.534674
    H  -1.973750   1.165146   2.555249
    H   0.024311   2.607431   2.312676
    H   0.480318   0.051012   3.280342
    H   1.457516   3.131348  -0.198492
    C   2.276694   0.862687  -0.062269
    C   2.219428  -0.504802  -0.807631
