46
B21C2H23
    B   1.428904   0.591763  -1.671953
    B  -0.031482   1.658697  -1.466418
    B  -1.697540   1.187573  -1.388537
    B  -2.497939  -0.454204  -0.835069
    B   1.021218  -1.336403  -1.542966
    B   0.921014   2.069758   0.020625
    B  -0.944728   2.070094   0.059347
    B   2.405916   0.952537  -0.122614
    B  -2.449281   0.965837   0.125264
    B  -2.442450  -0.543138   0.935707
    B  -1.690691  -1.772683  -0.004992
    B   0.054822  -2.183991  -0.066787
    B   1.778642  -1.857636   0.021507
    B   2.495131  -0.567533  -0.896711
    B   2.409196  -0.484541   0.899401
    B   0.909244  -1.456463   1.462616
    B  -0.894876  -1.242282   1.560630
    B  -1.462932   0.767289   1.642927
    B   0.034305   1.731420   1.576188
    B   1.634498   1.131793   1.406085
    B   0.239557   0.102550   2.150167
    H  -0.356404   0.017421  -3.025822
    H   0.039699   2.414681  -2.367260
    H   1.898017   0.982172  -2.680541
    H   1.122462  -1.937045  -2.550393
    H  -1.103856  -1.919480  -2.174119
    H  -3.335245  -0.778069  -1.598945
    H  -2.280224   1.654872  -2.300487
    H  -1.313867   3.193012   0.082226
    H  -3.461967   1.582750   0.136267
    H  -3.403940  -0.871019   1.537260
    H  -2.275283  -2.785777  -0.153720
    H  -0.041594  -3.348024  -0.223954
    H   2.385061  -2.871836   0.009582
    H   3.452678  -0.819401  -1.542256
    H   3.368458   1.615058  -0.306795
    H   2.332154   1.688305   2.183161
    H   3.369388  -0.712223   1.549386
    H   1.164125  -2.240060   2.309893
    H  -1.198593  -1.947027   2.458342
    H  -2.072193   1.198907   2.561056
    H  -0.032570   2.612371   2.359420
    H   0.327274   0.029661   3.327931
    H   1.296352   3.177051  -0.154304
    C  -0.256128   0.077925  -1.950256
    C  -0.844630  -1.270802  -1.349796
