46
B21C2H23
    B   1.418742   0.813057  -1.574336
    B  -0.082430   1.715459  -1.491714
    B  -1.670639   1.151505  -1.456755
    B  -2.323624  -0.484701  -0.847556
    B  -0.917738  -1.493775  -1.452588
    B   0.880435  -1.272651  -1.571125
    B  -0.306003   0.088080  -2.131472
    B   1.011061   2.004254  -0.003512
    B  -1.033045   2.094809   0.054187
    B   2.429464   0.918928  -0.066306
    B  -2.467322   0.956526   0.046876
    B  -2.120443  -0.445549   1.106196
    B  -1.651699  -1.830956   0.095171
    B   0.049035  -2.334593  -0.008289
    B   1.754896  -1.842181  -0.086799
    B   2.469254  -0.558417   0.822512
    B   0.972265  -1.395448   1.444293
    B  -0.757557  -1.595500   1.545665
    B   0.036044   1.740325   1.529694
    B   1.536325   0.877746   1.450686
    B  -0.194573   0.034775   2.019294
    H  -0.350776   0.054550  -3.312539
    H   0.027518   2.643504  -2.214708
    H   2.073853   1.244132  -2.456566
    H   1.254928  -1.867903  -2.518363
    H  -1.220530  -2.244400  -2.313597
    H  -3.337223  -0.752197  -1.392699
    H  -2.361458   1.676729  -2.258545
    H  -1.383820   3.212061   0.181762
    H  -3.547080   1.420583   0.158737
    H  -2.988318  -0.601229   1.889309
    H  -2.433050  -2.716305   0.174054
    H   0.085856  -3.513542  -0.058466
    H   2.455661  -2.788936  -0.150490
    H   3.173317  -0.722483  -1.466449
    H   3.461322   1.487099  -0.130836
    H   2.170757   1.313955   2.349236
    H   3.512577  -0.808711   1.306938
    H   1.390868  -1.937596   2.411056
    H  -1.022162  -2.310583   2.446979
    H  -2.025448   1.694980   2.030845
    H   0.083102   2.594195   2.342219
    H  -0.333772   0.082572   3.190554
    H   1.426999   3.107022  -0.050040
    C   2.305180  -0.505884  -0.861306
    C  -1.451039   1.170556   1.279089
