46
B21C2H23
    B   1.425610   0.600515  -1.662938
    B  -0.037053   1.661878  -1.469275
    B  -1.700125   1.185960  -1.388380
    B  -2.499767  -0.453003  -0.834266
    B   1.020095  -1.338433  -1.541839
    B   0.925653   2.062715   0.013361
    B  -0.947013   2.070789   0.056740
    B   2.412644   0.948519  -0.118491
    B  -2.451853   0.965520   0.126398
    B  -2.443883  -0.543068   0.935894
    B  -1.688134  -1.771443  -0.003848
    B   0.055982  -2.183813  -0.066993
    B   1.779543  -1.856706   0.021928
    B   2.495786  -0.567905  -0.899403
    B   2.419665  -0.487972   0.895690
    B   0.912000  -1.450487   1.463965
    B  -0.895691  -1.243555   1.561527
    B  -1.465224   0.770287   1.642270
    B   0.033439   1.729922   1.570273
    B   1.633290   1.120679   1.408682
    B   0.231269   0.103800   2.151895
    H  -0.354931   0.016701  -3.025303
    H   0.033626   2.417188  -2.370588
    H   1.897242   0.991440  -2.670248
    H   1.124307  -1.933941  -2.551931
    H  -1.103976  -1.918724  -2.172458
    H  -3.332638  -0.783215  -1.600137
    H  -2.283291   1.655663  -2.298790
    H  -1.312550   3.194594   0.083331
    H  -3.464442   1.582667   0.135209
    H  -3.403753  -0.872827   1.538917
    H  -2.274420  -2.783719  -0.151973
    H  -0.039394  -3.347926  -0.223932
    H   2.384574  -2.871829   0.008561
    H   3.449397  -0.821339  -1.550050
    H   3.372589   1.615044  -0.300970
    H   2.326998   1.678574   2.188358
    H   3.379368  -0.717940   1.545396
    H   1.167115  -2.232289   2.312827
    H  -1.197759  -1.950259   2.458104
    H  -2.074600   1.205967   2.558516
    H  -0.026834   2.613763   2.350778
    H   0.316668   0.033277   3.329971
    H   1.300442   3.170556  -0.158305
    C  -0.259013   0.079387  -1.949538
    C  -0.841247  -1.271150  -1.348641
