46
B21C2H23
    B   1.399427   0.950376  -1.420508
    B  -0.197878   1.702133  -1.341611
    B  -1.714724   1.091478  -1.544646
    B  -2.333994  -0.509864  -0.892549
    B  -0.973966  -1.540743  -1.507033
    B   0.870528  -1.300966  -1.573409
    B  -0.299520   0.068191  -2.102716
    B   1.136225   1.957046  -0.004393
    B  -1.189104   1.820492   0.264133
    B   2.511141   0.910840  -0.076825
    B  -2.610499   0.848827  -0.086553
    B  -1.950941  -0.363704   1.176042
    B  -1.676871  -1.802372   0.103546
    B   0.037897  -2.359832   0.006694
    B   1.745311  -1.848403  -0.148873
    B   2.650727  -0.624794   0.782039
    B   1.042258  -1.228127   1.396728
    B  -0.757856  -1.471407   1.596130
    B   0.147656   1.721020   1.535907
    B   1.546245   0.658233   1.419158
    B  -0.403139   0.011663   1.881079
    H  -0.280606   0.078790  -3.286017
    H  -0.091824   2.724923  -1.921635
    H   2.054908   1.430294  -2.278072
    H   1.276855  -1.834238  -2.544179
    H  -1.260794  -2.307162  -2.358009
    H  -3.407983  -0.781606  -1.312889
    H  -2.336635   1.691464  -2.353196
    H  -1.441788   2.967324   0.375744
    H  -3.706389   1.268420   0.013946
    H  -2.589943  -0.354850   2.162878
    H  -2.512068  -2.627316   0.269054
    H   0.048776  -3.537526   0.057559
    H   2.383549  -2.842000  -0.175749
    H   3.139369  -0.718399  -1.552545
    H   3.504520   1.549719  -0.044209
    H   2.070883   0.925050   2.449305
    H   3.723430  -0.894757   1.170396
    H   1.500224  -1.596504   2.430980
    H  -0.955620  -2.271842   2.442234
    H  -1.907922   1.883326   1.643231
    H   0.139693   2.560248   2.363240
    H  -0.821964   0.193302   2.965639
    H   1.484503   3.076764  -0.059931
    C   2.348911  -0.504218  -0.840663
    C  -1.341297   1.304569   0.920845
