46
B21C2H23
    B   1.430808   0.754505  -1.622957
    B  -0.036070   1.710923  -1.557507
    B  -1.640477   1.161754  -1.426327
    B  -2.336594  -0.475640  -0.845770
    B  -0.905119  -1.468919  -1.443742
    B   0.881399  -1.254785  -1.569192
    B  -0.289227   0.094116  -2.151182
    B   0.958488   2.031224  -0.028821
    B  -0.950130   2.147315  -0.047661
    B   2.406450   0.938878  -0.066099
    B  -2.406572   0.978864   0.099893
    B  -2.244952  -0.492878   1.037067
    B  -1.670381  -1.832090   0.063753
    B   0.034721  -2.304431  -0.018685
    B   1.741349  -1.836512  -0.044381
    B   2.391027  -0.519616   0.866749
    B   0.934367  -1.461923   1.468381
    B  -0.806473  -1.541770   1.551730
    B  -0.016092   1.735598   1.518845
    B   1.552610   1.018270   1.440589
    B  -0.001412   0.058823   2.096139
    H  -0.358003   0.039851  -3.330020
    H   0.079699   2.594452  -2.333469
    H   2.098594   1.151031  -2.511445
    H   1.259171  -1.876442  -2.497707
    H  -1.195804  -2.215688  -2.312869
    H  -3.322632  -0.721437  -1.446441
    H  -2.357258   1.675265  -2.212844
    H  -1.333754   3.251715   0.099518
    H  -3.450103   1.509104   0.256091
    H  -3.185890  -0.683300   1.722929
    H  -2.411563  -2.753053   0.098515
    H   0.074342  -3.483376  -0.081756
    H   2.461242  -2.766874  -0.122280
    H   3.171920  -0.731594  -1.409827
    H   3.447480   1.479914  -0.181201
    H   2.213494   1.548907   2.264950
    H   3.424327  -0.767041   1.377635
    H   1.311751  -2.106885   2.385972
    H  -1.120920  -2.181516   2.492047
    H  -2.004583   1.410269   2.275594
    H  -0.019047   2.603082   2.318261
    H  -0.029401   0.068612   3.277429
    H   1.376974   3.135343  -0.075766
    C   2.278858  -0.503697  -0.848576
    C  -1.436904   0.955515   1.474731
