46
B21C2H23
    B   1.394327   0.782025  -1.619621
    B  -0.077533   1.731737  -1.544655
    B  -1.680205   1.205080  -1.403544
    B  -2.335050  -0.484102  -0.945324
    B  -0.871869  -1.516207  -1.448689
    B   0.886566  -1.223864  -1.579602
    B  -0.351909   0.093156  -2.124192
    B   0.958023   2.069214  -0.070339
    B  -0.979251   2.070844   0.020783
    B  -2.455007   0.950896   0.089603
    B  -2.410039  -0.547887   0.900315
    B  -1.715150  -1.849705   0.007427
    B  -0.008663  -2.293749   0.012427
    B   1.699904  -1.851561  -0.010560
    B   2.239327  -0.505431   1.028771
    B   0.858002  -1.557187   1.469175
    B  -0.899858  -1.268860   1.566318
    B  -1.404804   0.750566   1.602188
    B   0.049500   1.733576   1.512447
    B   1.655163   1.233487   1.387798
    B   0.344336   0.079546   2.102380
    H  -0.369052   0.042839  -3.306756
    H   0.072840   2.590763  -2.342963
    H   2.136058   1.147241  -2.458695
    H   1.337786  -1.804176  -2.502146
    H  -1.079250  -2.285658  -2.323465
    H  -3.272749  -0.735009  -1.620185
    H  -2.350738   1.774401  -2.193848
    H  -1.281814   3.208834   0.139108
    H  -3.473514   1.534854   0.233483
    H  -3.381777  -0.820258   1.513844
    H  -2.375475  -2.829753   0.035147
    H   0.033615  -3.475693  -0.000370
    H   2.461467  -2.744953  -0.120706
    H   3.151903  -0.688418  -1.317535
    H   3.254226   1.306138  -0.201146
    H   2.436958   1.789000   2.073950
    H   3.300875  -0.664897   1.513026
    H   1.207864  -2.303794   2.317276
    H  -1.210147  -1.872437   2.534443
    H  -1.966516   1.161631   2.558718
    H   0.024088   2.605044   2.309105
    H   0.487548   0.050774   3.275465
    H   1.459312   3.128898  -0.203182
    C   2.279309   0.862219  -0.062242
    C   2.221083  -0.505305  -0.803136
