46
B21C2H23
    B   1.436112   0.744713  -1.634668
    B  -0.027901   1.711656  -1.573651
    B  -1.632855   1.160991  -1.418357
    B  -2.346685  -0.474377  -0.844231
    B  -0.906966  -1.461790  -1.440567
    B   0.881033  -1.251850  -1.572368
    B  -0.283521   0.096565  -2.160166
    B   0.944209   2.038561  -0.036333
    B  -0.927166   2.149785  -0.072180
    B   2.407836   0.952126  -0.063346
    B  -2.390570   0.983715   0.111724
    B  -2.285391  -0.506805   1.015168
    B  -1.679609  -1.831175   0.058289
    B   0.026747  -2.295968  -0.019316
    B   1.737592  -1.840916  -0.028609
    B   2.371317  -0.507099   0.887789
    B   0.922042  -1.477355   1.471062
    B  -0.819764  -1.513334   1.546065
    B  -0.032412   1.728603   1.516011
    B   1.559165   1.059204   1.436023
    B   0.067202   0.064722   2.100438
    H  -0.357872   0.037100  -3.338483
    H   0.091010   2.585471  -2.360366
    H   2.111921   1.132188  -2.521126
    H   1.264535  -1.882830  -2.492098
    H  -1.187176  -2.210333  -2.312207
    H  -3.323786  -0.712404  -1.462382
    H  -2.356610   1.675497  -2.198489
    H  -1.322534   3.247858   0.093413
    H  -3.415124   1.541725   0.295111
    H  -3.238020  -0.697012   1.684994
    H  -2.409350  -2.761621   0.084610
    H   0.063765  -3.475626  -0.079038
    H   2.464242  -2.765230  -0.111604
    H   3.168022  -0.734724  -1.391169
    H   3.451252   1.483361  -0.196997
    H   2.219884   1.621159   2.239866
    H   3.407101  -0.756163   1.394140
    H   1.277395  -2.149423   2.378084
    H  -1.146658  -2.126231   2.500267
    H  -1.990143   1.310656   2.327562
    H  -0.061867   2.593215   2.318130
    H   0.067372   0.064924   3.282655
    H   1.359554   3.144811  -0.083414
    C   2.269189  -0.501568  -0.840194
    C  -1.426808   0.879088   1.510257
