46
B21C2H23
    B   1.423867   0.817352  -1.581248
    B  -0.067357   1.743351  -1.543455
    B  -1.658377   1.118207  -1.420476
    B  -2.393912  -0.494477  -0.893767
    B  -0.902445  -1.474124  -1.463242
    B   0.888700  -1.270940  -1.563184
    B  -0.249187   0.099411  -2.129238
    B   0.944107   2.018548  -0.075771
    B  -0.981827   2.056312   0.021681
    B  -2.474090   0.954761   0.089162
    B  -2.422261  -0.533778   0.923737
    B  -1.712256  -1.826122   0.031055
    B   0.004002  -2.256244   0.007623
    B   1.723008  -1.849411  -0.035974
    B   2.424794  -0.552724  -0.926805
    B   2.416942  -0.541828   0.861150
    B   0.918369  -1.440846   1.462134
    B  -0.886935  -1.300655   1.557598
    B  -1.466857   0.842073   1.586997
    B   1.616518   1.049837   1.411801
    B   0.167581   0.079235   2.134473
    H  -0.276693   0.066153  -3.311848
    H   0.000392   2.633275  -2.316584
    H   2.108895   1.283822  -2.421344
    H   1.222620  -1.890508  -2.512897
    H  -1.195960  -2.213907  -2.337209
    H  -3.346927  -0.745628  -1.545909
    H  -2.324914   1.692863  -2.210749
    H  -1.255515   3.190653   0.197092
    H  -3.481168   1.565305   0.196777
    H  -3.351070  -0.778179   1.612464
    H  -2.366347  -2.809963   0.082409
    H   0.015264  -3.437167   0.027213
    H   2.386197  -2.827489  -0.059902
    H   3.430280  -0.692819  -1.523736
    H   3.219648   1.414084  -0.132455
    H   2.279642   1.624288   2.196366
    H   3.409892  -0.650423   1.486478
    H   1.270139  -2.096945   2.381115
    H  -1.171768  -1.929705   2.516557
    H  -1.968194   1.353126   2.525730
    H   0.054468   2.383615   2.095068
    H   0.287876   0.175208   3.303893
    H   1.384469   3.109280  -0.016352
    C   0.055109   1.570810   1.383305
    C   2.300989   0.846173  -0.069437
