46
B21C2H23
    B   1.489649   0.670866  -1.666595
    B  -0.018216   1.678584  -1.469700
    B  -1.594662   0.810354  -1.468377
    B  -2.590068  -0.530606  -0.772480
    B  -1.031459  -1.255012  -1.484658
    B   0.901618  -1.221754  -1.570171
    B   0.922998   2.070221   0.026446
    B  -0.925482   1.994452   0.065667
    B   2.423953   0.967922  -0.078152
    B  -2.453634   0.925676   0.102592
    B  -2.471157  -0.550324   0.980547
    B  -1.743704  -1.809566   0.040117
    B  -0.013288  -2.153847  -0.082648
    B   1.704216  -1.806216  -0.032143
    B   2.381792  -0.490508   0.908795
    B   0.905550  -1.440979   1.467699
    B  -0.892639  -1.252931   1.560758
    B  -1.464151   0.813620   1.599605
    B   0.050539   1.731551   1.597775
    B   1.638716   1.107515   1.441968
    B   0.215184   0.107181   2.174399
    H  -0.144972   0.121124  -3.123617
    H   0.024623   2.498413  -2.314301
    H   2.081310   1.057153  -2.608573
    H   1.221482  -1.858239  -2.506811
    H  -1.239572  -1.917011  -2.439492
    H  -3.566295  -0.773413  -1.390968
    H  -2.145961   1.277735  -2.402932
    H  -1.324432   3.105454   0.024669
    H  -3.371030   1.671249   0.085629
    H  -3.401420  -0.823954   1.654269
    H  -2.301307  -2.851130   0.020651
    H   0.013348  -3.330477  -0.180321
    H   2.384604  -2.761946  -0.148033
    H   3.240702  -0.743594  -1.355193
    H   3.423881   1.556933  -0.289211
    H   2.350541   1.662448   2.207904
    H   3.419185  -0.769857   1.396093
    H   1.216793  -2.223050   2.297496
    H  -1.154952  -1.945745   2.482136
    H  -2.059053   1.294953   2.503386
    H   0.016285   2.619788   2.374269
    H   0.310064   0.028669   3.351069
    H   1.313926   3.175959  -0.114085
    C   2.336886  -0.487416  -0.820862
    C  -0.080684   0.123613  -2.044320
