46
B21C2H23
    B   1.420554   0.809955  -1.580568
    B  -0.068219   1.739136  -1.539473
    B  -1.665388   1.136132  -1.412187
    B  -2.403826  -0.498325  -0.899400
    B  -0.919410  -1.475965  -1.478561
    B   0.861842  -1.251698  -1.551682
    B  -0.265187   0.108420  -2.124278
    B   0.952590   2.062565  -0.057348
    B  -0.987117   2.062950   0.028808
    B  -2.464180   0.943024   0.093754
    B  -2.428168  -0.547681   0.923095
    B  -1.722699  -1.828352   0.013396
    B  -0.004516  -2.261011  -0.020752
    B   2.396793  -0.542688  -0.908925
    B   2.348908  -0.497283   0.910070
    B   0.873488  -1.478995   1.471283
    B  -0.893222  -1.272186   1.554204
    B  -1.442189   0.794803   1.595195
    B   0.047045   1.736629   1.512652
    B   1.634244   1.150941   1.403680
    B   0.245452   0.105132   2.121524
    H  -0.227669   0.036334  -3.305943
    H   0.017720   2.610705  -2.332164
    H   2.120801   1.215638  -2.440435
    H   1.278416  -1.939229  -2.415160
    H  -1.177555  -2.230531  -2.351329
    H  -3.348439  -0.757467  -1.560949
    H  -2.330746   1.674534  -2.228781
    H  -1.311889   3.196414   0.122017
    H  -3.476799   1.544532   0.206350
    H  -3.373518  -0.834419   1.570771
    H  -2.311071  -2.852962   0.065442
    H   0.095544  -3.436352  -0.018677
    H   2.205833  -2.586531  -0.048344
    H   3.401727  -0.826738  -1.447834
    H   3.244011   1.377636  -0.162412
    H   2.402419   1.653279   2.145619
    H   3.350499  -0.762662   1.464758
    H   1.285130  -2.240307   2.272574
    H  -1.161621  -1.921773   2.505318
    H  -2.009401   1.218198   2.543447
    H   0.043918   2.608687   2.309309
    H   0.403855   0.041169   3.291870
    H   1.451361   3.127373  -0.153436
    C   1.606562  -1.686627  -0.014214
    C   2.303825   0.849458  -0.071987
