46
B21C2H23
    B   1.433852   0.716627  -1.582071
    B  -0.062334   1.676382  -1.494911
    B  -1.679429   1.135750  -1.398101
    B  -2.416436  -0.466003  -0.865809
    B   0.914857  -1.247354  -1.506353
    B   0.963057   2.035110  -0.040142
    B  -0.966368   2.061429   0.036526
    B   2.465267   0.931111  -0.080970
    B  -2.464128   0.954600   0.112452
    B  -2.431852  -0.543324   0.924462
    B  -1.689320  -1.785171   0.004760
    B   0.033218  -2.204950  -0.026334
    B   1.749576  -1.835572  -0.001185
    B   2.466895  -0.559895  -0.895213
    B   2.420647  -0.501884   0.912426
    B   0.917842  -1.463713   1.473953
    B  -0.885254  -1.268009   1.553032
    B  -1.459281   0.797481   1.616490
    B   0.048151   1.722981   1.529029
    B   1.652012   1.123633   1.417369
    B   0.235393   0.101575   2.142768
    H  -0.382981  -0.031236  -3.001946
    H  -0.031790   2.450572  -2.381116
    H   1.913374   1.067336  -2.599810
    H   1.106699  -1.846064  -2.504495
    H  -1.098953  -1.940099  -2.192434
    H  -3.303676  -0.778427  -1.577400
    H  -2.285942   1.630026  -2.279635
    H  -1.323651   3.185809   0.064748
    H  -3.485996   1.548142   0.136938
    H  -3.397874  -0.866755   1.518016
    H  -2.307820  -2.780614  -0.118399
    H  -0.022647  -3.366599  -0.208950
    H   2.369600  -2.838595  -0.067614
    H   3.395278  -0.841130  -1.567347
    H   3.452588   1.561092  -0.241435
    H   2.326156   1.690596   2.205874
    H   3.379485  -0.756797   1.552074
    H   1.187329  -2.243153   2.319700
    H  -1.195179  -1.968066   2.450876
    H  -2.064924   1.237872   2.531648
    H  -0.004795   2.620254   2.294121
    H   0.308652   0.045029   3.321669
    H   1.329365   3.146854  -0.195706
    C  -0.256672   0.071513  -1.934905
    C  -0.852284  -1.304505  -1.356354
