46
B21C2H23
    B   1.487218   0.679156  -1.654818
    B  -0.021058   1.685154  -1.481413
    B  -1.596486   0.818160  -1.460192
    B  -2.591158  -0.529783  -0.771859
    B  -1.027470  -1.252365  -1.482766
    B   0.902676  -1.217496  -1.567329
    B   0.925002   2.065427   0.015856
    B  -0.928382   1.994923   0.056615
    B   2.428917   0.961414  -0.075235
    B  -2.457346   0.925292   0.108567
    B  -2.469821  -0.551772   0.981239
    B  -1.744614  -1.810223   0.039393
    B  -0.013237  -2.156833  -0.084932
    B   1.706864  -1.805994  -0.032038
    B   2.378222  -0.491831   0.917519
    B   0.902015  -1.447427   1.464173
    B  -0.894403  -1.251964   1.562374
    B  -1.464803   0.807727   1.605550
    B   0.047338   1.728728   1.585287
    B   1.639606   1.111367   1.440474
    B   0.219897   0.105947   2.169633
    H  -0.142958   0.118062  -3.120901
    H   0.021164   2.501584  -2.329054
    H   2.080529   1.062596  -2.597098
    H   1.220321  -1.850747  -2.507008
    H  -1.236719  -1.914684  -2.437024
    H  -3.567225  -0.774883  -1.389431
    H  -2.145631   1.283436  -2.397196
    H  -1.326203   3.106478   0.020361
    H  -3.375354   1.670091   0.098503
    H  -3.401768  -0.827411   1.652214
    H  -2.299048  -2.853236   0.017144
    H   0.013275  -3.333060  -0.185631
    H   2.383068  -2.764891  -0.145770
    H   3.240018  -0.744769  -1.357546
    H   3.429023   1.551818  -0.281598
    H   2.350819   1.671489   2.203035
    H   3.413298  -0.769927   1.410558
    H   1.213736  -2.231599   2.291998
    H  -1.154359  -1.944761   2.484286
    H  -2.052557   1.290265   2.513035
    H   0.014531   2.620115   2.358430
    H   0.313437   0.033108   3.346743
    H   1.319246   3.170048  -0.125622
    C   2.340105  -0.489128  -0.816527
    C  -0.080015   0.126262  -2.041706
