46
B21C2H23
    B   1.423646   0.817036  -1.581497
    B  -0.067455   1.743390  -1.543147
    B  -1.658700   1.118960  -1.420544
    B  -2.393226  -0.494261  -0.894123
    B  -0.902121  -1.474599  -1.463002
    B   0.888667  -1.270933  -1.563191
    B  -0.249623   0.099307  -2.128711
    B   0.944427   2.018839  -0.075935
    B  -0.981974   2.056496   0.021967
    B  -2.474088   0.954860   0.089137
    B  -2.421797  -0.533745   0.923615
    B  -1.712134  -1.826123   0.030887
    B   0.003922  -2.256707   0.007489
    B   1.723052  -1.849745  -0.035961
    B   2.424708  -0.552845  -0.926423
    B   2.415864  -0.541635   0.861768
    B   0.917947  -1.441487   1.461954
    B  -0.887048  -1.301046   1.557641
    B  -1.466557   0.842378   1.586634
    B   1.616608   1.051105   1.411463
    B   0.167997   0.078867   2.134341
    H  -0.277181   0.066056  -3.311330
    H   0.000448   2.633210  -2.316397
    H   2.108622   1.283272  -2.421747
    H   1.222791  -1.890204  -2.513031
    H  -1.195680  -2.214225  -2.337094
    H  -3.346237  -0.745609  -1.546209
    H  -2.325148   1.693653  -2.210829
    H  -1.255571   3.190848   0.197468
    H  -3.481485   1.564849   0.196828
    H  -3.350670  -0.778120   1.612271
    H  -2.366592  -2.809715   0.082538
    H   0.015357  -3.437642   0.026942
    H   2.386857  -2.827400  -0.059640
    H   3.430219  -0.692873  -1.523327
    H   3.219531   1.413848  -0.132680
    H   2.280055   1.625337   2.195906
    H   3.408818  -0.650271   1.487099
    H   1.269890  -2.097894   2.380674
    H  -1.172076  -1.929769   2.516746
    H  -1.968052   1.353262   2.525389
    H   0.054375   2.383582   2.095542
    H   0.288705   0.174724   3.303723
    H   1.384572   3.109676  -0.016902
    C   0.055319   1.570903   1.383570
    C   2.300727   0.846249  -0.069580
