46
B21C2H23
    B   1.402404   0.788523  -1.626058
    B  -0.073013   1.726711  -1.540728
    B  -1.677891   1.194823  -1.407693
    B  -2.345221  -0.487611  -0.935836
    B  -0.872061  -1.509103  -1.445686
    B   0.886971  -1.234035  -1.585519
    B  -0.335929   0.094525  -2.127868
    B   0.954936   2.070492  -0.061281
    B  -0.973646   2.068983   0.022251
    B  -2.453435   0.949573   0.089010
    B  -2.414446  -0.546570   0.901532
    B  -1.717430  -1.848087   0.010216
    B  -0.011740  -2.293294   0.023203
    B   1.696207  -1.850663  -0.017020
    B   2.258854  -0.508779   1.003298
    B   0.863831  -1.541366   1.467350
    B  -0.900424  -1.268853   1.569957
    B  -1.412559   0.754351   1.604362
    B   0.044429   1.735275   1.521248
    B   1.646636   1.216415   1.393409
    B   0.315757   0.085094   2.112694
    H  -0.352199   0.046336  -3.310620
    H   0.069312   2.589864  -2.336448
    H   2.147382   1.158544  -2.459979
    H   1.336622  -1.813898  -2.509012
    H  -1.083029  -2.275535  -2.322674
    H  -3.280958  -0.740005  -1.612746
    H  -2.345318   1.762272  -2.201715
    H  -1.282992   3.206398   0.128045
    H  -3.467218   1.543016   0.228351
    H  -3.382735  -0.820087   1.520262
    H  -2.371652  -2.832277   0.035939
    H   0.032169  -3.474991   0.011990
    H   2.455916  -2.745823  -0.126077
    H   3.153066  -0.685442  -1.323920
    H   3.248405   1.308260  -0.197641
    H   2.431732   1.764110   2.082379
    H   3.320674  -0.671073   1.485610
    H   1.220557  -2.283520   2.316750
    H  -1.203837  -1.878964   2.536016
    H  -1.980260   1.170467   2.555477
    H   0.027296   2.610628   2.313778
    H   0.471447   0.053944   3.284192
    H   1.459353   3.128730  -0.192991
    C   2.274286   0.861710  -0.062408
    C   2.219459  -0.505208  -0.813104
