46
B21C2H23
    B   1.427358   0.632028  -1.630502
    B  -0.054360   1.657555  -1.482458
    B  -1.712665   1.187004  -1.386979
    B  -2.510303  -0.454193  -0.830978
    B   1.020389  -1.330198  -1.537062
    B   0.934356   2.041923  -0.010121
    B  -0.950001   2.066293   0.052058
    B   2.433440   0.941707  -0.103995
    B  -2.461054   0.964574   0.129086
    B  -2.442892  -0.544014   0.937596
    B  -1.687894  -1.768211  -0.008019
    B   0.056135  -2.183851  -0.063678
    B   1.780453  -1.855465   0.020528
    B   2.499052  -0.567174  -0.897156
    B   2.428578  -0.493749   0.900111
    B   0.913950  -1.447381   1.466282
    B  -0.892554  -1.246257   1.557083
    B  -1.464474   0.778621   1.636053
    B   0.038857   1.726900   1.556990
    B   1.638352   1.110432   1.414275
    B   0.225470   0.105272   2.151463
    H  -0.344701   0.008264  -3.027465
    H   0.014672   2.415893  -2.381297
    H   1.896931   1.022799  -2.638880
    H   1.123642  -1.916692  -2.552526
    H  -1.101236  -1.920135  -2.174307
    H  -3.343304  -0.783586  -1.596960
    H  -2.297126   1.652877  -2.298460
    H  -1.311162   3.191383   0.080473
    H  -3.472714   1.582939   0.144127
    H  -3.399081  -0.877371   1.544623
    H  -2.270800  -2.783364  -0.150281
    H  -0.040171  -3.347450  -0.222295
    H   2.382125  -2.872569   0.001243
    H   3.445265  -0.819915  -1.558774
    H   3.395584   1.606695  -0.278843
    H   2.321672   1.675224   2.198144
    H   3.387255  -0.732275   1.548439
    H   1.171288  -2.227843   2.315719
    H  -1.196637  -1.954793   2.451615
    H  -2.072034   1.218822   2.551523
    H  -0.017494   2.618947   2.328300
    H   0.307294   0.037458   3.329949
    H   1.308338   3.149956  -0.182021
    C  -0.264779   0.076354  -1.950841
    C  -0.843316  -1.269572  -1.351484
