48
B22C2H24
    B   1.569481  -1.857984  -0.553372
    B   1.760201  -1.490786   1.292807
    B   1.779418  -0.080410  -1.408406
    B   1.745419   0.301507   1.427286
    B   1.504969   1.703426  -1.275468
    B   1.221926   2.047254   0.571103
    B  -1.500164  -1.680921  -1.276092
    B  -1.218110  -2.042851   0.554137
    B  -1.794120   0.096478  -1.409984
    B  -1.725655  -0.299372   1.412954
    B  -1.542655   1.864850  -0.567618
    B   0.462722  -2.448295   0.814514
    B  -0.061826  -2.468560  -0.830711
    B   0.078511  -0.954424   1.786444
    B  -0.087856   0.941323   1.776355
    B  -0.470455   2.428657   0.809112
    B   0.068307   2.474348  -0.832690
    B  -0.063282   0.936464  -1.796577
    B   2.634939  -0.641996   0.145426
    B   2.492823   0.997586  -0.112955
    B  -2.486805  -0.968276  -0.123630
    B  -2.610038   0.665793   0.142928
    H   3.563904   1.491174  -0.156076
    H   3.772287  -0.955620   0.174684
    H   2.426189  -2.075724   2.070391
    H   2.298135   0.607660   2.423110
    H   1.809408   2.915683   1.112130
    H   2.082875   2.375933  -2.051666
    H   2.353413  -0.299151  -2.414856
    H   2.277040  -2.606327  -1.129756
    H  -0.039502  -1.218119   2.930729
    H  -0.034330   1.231416   2.916051
    H   0.570033  -3.516205   1.301623
    H  -1.836721  -2.899822   1.078364
    H  -2.322472  -0.557028   2.393839
    H  -2.278429   1.946528   1.890965
    H  -0.623355   3.473812   1.333235
    H   0.019955   3.530261  -1.355420
    H  -0.194979   1.131883  -2.951554
    H   0.133207  -1.224835  -2.725317
    H  -0.038312  -3.504933  -1.388745
    H  -2.070601  -2.336199  -2.069575
    H  -2.398907   0.294835  -2.399271
    H  -2.292157   2.631943  -1.055097
    H  -3.738228   1.002265   0.209492
    H  -3.565447  -1.439887  -0.172883
    C  -1.686589   1.435480   1.211421
    C   0.055990  -0.958960  -1.719989
