48
B22C2H24
    B   1.653410  -1.935700  -0.493740
    B   1.778787  -1.508139   1.364323
    B   1.999814  -0.235302  -1.407569
    B   1.714677   0.297921   1.414078
    B   1.326158   1.462686  -1.409934
    B   1.114032   1.905741   0.596338
    B  -1.066573  -0.928894  -1.536390
    B  -1.136614  -1.830957   0.630254
    B  -2.010994   0.539386  -1.355052
    B  -1.714430  -0.303748   1.438782
    B  -1.882690   2.092765  -0.305493
    B   0.428941  -2.476708   0.824927
    B  -0.060191  -2.396313  -0.812694
    B   0.117004  -0.993471   1.840206
    B  -0.087433   1.008501   1.813034
    B  -0.554500   2.412108   0.755582
    B  -0.183614   2.124866  -0.931618
    B  -0.190748   0.544622  -1.915128
    B   2.728667  -0.680558   0.207614
    B   2.401165   0.942413  -0.198913
    B  -2.348389  -0.897631  -0.249428
    B  -2.718083   0.711646   0.247936
    H   3.397978   1.577765  -0.266005
    H   3.887119  -0.891816   0.305713
    H   2.412091  -2.108938   2.158975
    H   2.280124   0.628750   2.399383
    H   1.699141   2.855639   0.985076
    H   1.734682   2.087041  -2.324026
    H   2.690616  -0.358643  -2.357619
    H   2.210600  -2.780197  -1.108839
    H   0.008213  -1.248468   2.989075
    H   0.005340   1.320416   2.946621
    H   0.469571  -3.558839   1.295949
    H  -1.813506  -2.714323   1.039688
    H  -2.354638  -0.607690   2.382236
    H  -2.237575   1.843407   2.149715
    H  -0.601841   3.510667   1.187430
    H  -0.230258   3.085787  -1.627990
    H  -0.216036   0.680308  -3.089636
    H   0.806582  -1.609430  -2.655052
    H  -0.378802  -3.387704  -1.364783
    H  -1.479982  -1.424727  -2.529980
    H  -2.743001   0.721059  -2.262743
    H  -2.586592   3.025651  -0.453438
    H  -3.875892   0.857362   0.436911
    H  -3.322561  -1.540583  -0.417554
    C  -1.691596   1.394381   1.330948
    C   0.621984  -1.212238  -1.665776
