48
B22C2H24
    B   1.571325  -1.949249  -0.490751
    B   1.783095  -1.546367   1.272364
    B   1.923337  -0.175183  -1.445208
    B   1.728674   0.233613   1.455705
    B   1.280260   1.592801  -1.257694
    B   1.137042   1.856748   0.632884
    B  -1.077154  -0.897081  -1.822246
    B  -1.126524  -1.872359   0.915855
    B  -1.896116   0.612668  -1.327009
    B  -1.647151  -0.277315   1.482750
    B  -1.925137   2.048091  -0.246154
    B   0.419893  -2.478655   0.868400
    B  -0.364811  -2.219962  -0.706403
    B   0.157600  -1.010219   1.924558
    B  -0.061393   1.029691   1.786466
    B  -0.525551   2.429081   0.698310
    B  -0.440445   2.008697  -1.132233
    B   0.157343   0.481096  -2.061533
    B   2.692609  -0.674041   0.159878
    B   2.404720   0.969104  -0.140924
    B  -2.104034  -0.927055  -0.321165
    B  -2.721777   0.606902   0.280902
    H   3.440301   1.534029  -0.207924
    H   3.848958  -0.905666   0.213620
    H   2.476234  -2.169257   2.000372
    H   2.296347   0.540012   2.446164
    H   1.722984   2.788618   1.070443
    H   1.761334   2.410573  -1.960607
    H   2.663278  -0.327580  -2.352220
    H   2.158086  -2.824743  -1.022776
    H   0.104293  -1.181429   3.091486
    H   0.025921   1.385121   2.907089
    H   0.478761  -3.596376   1.245793
    H  -1.888949  -2.670516   1.339282
    H  -2.320887  -0.549492   2.415110
    H  -2.251032   1.867530   2.121741
    H  -0.561952   3.530747   1.116260
    H  -0.593011   2.876881  -1.923894
    H   0.155837   0.674550  -3.226491
    H   0.767050  -1.698637  -2.641629
    H  -0.672236  -3.223540  -1.246211
    H  -1.547158  -1.364642  -2.795550
    H  -2.637463   0.777087  -2.233996
    H  -2.668699   2.947879  -0.406923
    H  -3.878997   0.685022   0.485670
    H  -3.068927  -1.572235  -0.548275
    C  -1.705506   1.409453   1.309272
    C   0.529784  -1.184521  -1.721164
