48
B22C2H24
    B   1.599161  -1.965948  -0.491612
    B   1.791115  -1.540044   1.281061
    B   1.936255  -0.171764  -1.462522
    B   1.712721   0.242563   1.439674
    B   1.303773   1.559266  -1.298925
    B   1.088845   1.873650   0.548109
    B  -1.080093  -0.944624  -1.718983
    B  -1.129118  -1.854356   0.809505
    B  -1.869708   0.633941  -1.303247
    B  -1.682184  -0.286583   1.449333
    B  -1.915989   2.088177  -0.222282
    B   0.421452  -2.478268   0.870761
    B  -0.230290  -2.317504  -0.737819
    B   0.154277  -0.985240   1.885468
    B  -0.074785   1.011212   1.781464
    B  -0.550910   2.438424   0.769011
    B  -0.392682   1.992048  -1.063522
    B   0.129861   0.447071  -2.034720
    B   2.687883  -0.673983   0.156385
    B   2.404100   0.967601  -0.151875
    B  -2.181496  -0.872588  -0.299297
    B  -2.747289   0.657705   0.284498
    H   3.433333   1.544837  -0.207349
    H   3.846014  -0.899570   0.209558
    H   2.475040  -2.160838   2.018676
    H   2.260380   0.587332   2.428018
    H   1.672271   2.816382   0.964776
    H   1.776441   2.365414  -2.019729
    H   2.656792  -0.326017  -2.383810
    H   2.232324  -2.813000  -1.017983
    H   0.071923  -1.176465   3.047493
    H   0.029440   1.348860   2.905925
    H   0.450196  -3.576650   1.302841
    H  -1.872651  -2.672117   1.232853
    H  -2.336129  -0.582487   2.387210
    H  -2.257431   1.858397   2.162800
    H  -0.574096   3.526803   1.221022
    H  -0.522460   2.885136  -1.832035
    H   0.094823   0.633405  -3.199967
    H   0.748100  -1.704713  -2.659283
    H  -0.532003  -3.320491  -1.279260
    H  -1.578728  -1.413176  -2.678965
    H  -2.572601   0.813499  -2.236641
    H  -2.642078   2.997724  -0.403988
    H  -3.904371   0.761386   0.482974
    H  -3.140976  -1.516131  -0.547868
    C  -1.723849   1.419607   1.331360
    C   0.535556  -1.218006  -1.717699
