48
B22C2H24
    B   1.568003  -1.942407  -0.499148
    B   1.784438  -1.549542   1.277368
    B   1.926761  -0.172453  -1.443550
    B   1.730004   0.229983   1.460463
    B   1.282490   1.589314  -1.260787
    B   1.134510   1.843014   0.639990
    B  -1.071963  -0.891590  -1.816258
    B  -1.120091  -1.869157   0.929198
    B  -1.891993   0.610742  -1.325067
    B  -1.644443  -0.279923   1.475371
    B  -1.919618   2.049487  -0.248624
    B   0.414667  -2.476595   0.871330
    B  -0.359665  -2.218800  -0.704775
    B   0.156723  -1.015420   1.928636
    B  -0.056389   1.025541   1.778486
    B  -0.527829   2.427974   0.696246
    B  -0.440411   1.984690  -1.136879
    B   0.150983   0.480706  -2.062476
    B   2.688843  -0.672344   0.159216
    B   2.403551   0.978399  -0.141681
    B  -2.098314  -0.921069  -0.320762
    B  -2.720278   0.611083   0.282342
    H   3.438625   1.542625  -0.218975
    H   3.845066  -0.901695   0.224515
    H   2.475607  -2.172806   2.006338
    H   2.288459   0.543893   2.453451
    H   1.723167   2.771300   1.081652
    H   1.761629   2.412779  -1.957929
    H   2.666451  -0.319707  -2.351611
    H   2.157672  -2.814684  -1.033090
    H   0.095598  -1.179094   3.096021
    H   0.030169   1.384068   2.898475
    H   0.468241  -3.595849   1.245023
    H  -1.882396  -2.666688   1.353727
    H  -2.318707  -0.554754   2.406654
    H  -2.248978   1.862219   2.121647
    H  -0.557441   3.531991   1.107794
    H  -0.607524   2.851057  -1.929051
    H   0.146739   0.673441  -3.227800
    H   0.757420  -1.692305  -2.645556
    H  -0.676105  -3.214102  -1.253421
    H  -1.552929  -1.345344  -2.790803
    H  -2.627727   0.771441  -2.236859
    H  -2.658552   2.952407  -0.414327
    H  -3.877897   0.682073   0.487789
    H  -3.059658  -1.570649  -0.547772
    C  -1.702950   1.407639   1.309841
    C   0.526196  -1.181014  -1.722977
