48
B22C2H24-16
    B   1.937286  -1.869215  -0.336138
    B   1.765352  -1.544834   1.385602
    B   1.444229   0.152313   1.710558
    B   1.009373   0.477985  -2.007145
    B   1.204622   1.807096   1.076303
    B  -1.234102  -1.623869  -1.031738
    B  -1.260209  -1.723173   0.881266
    B  -1.967516   0.170544  -1.397789
    B  -1.850397  -0.227875   1.536395
    B  -1.530832   1.869071  -0.510707
    B  -1.704078   1.543507   1.221756
    B   0.406469  -2.235820   0.436475
    B   0.551182  -1.745733  -1.347244
    B   0.025442  -1.019900   1.742216
    B  -0.124626   0.995395   1.969999
    B  -0.338269   2.457595   0.785934
    B   0.737736   1.901952  -0.687590
    B  -0.487106  -0.573669  -2.187006
    B   2.660357  -0.475725   0.398065
    B   1.968187   1.149965  -0.420689
    B  -2.454865  -0.980068  -0.000502
    B  -2.728258   0.708450   0.138787
    H   2.974059   1.694317  -0.718830
    H   3.825689  -0.359319   0.528145
    H   2.348926  -2.150418   2.210190
    H   2.088302   0.333884   2.690452
    H   1.965126   2.605935   1.501720
    H   1.393331   0.831479  -3.063528
    H   2.918222  -0.490682  -1.832884
    H   2.667408  -2.732244  -0.675673
    H  -0.091296  -1.513932   2.815261
    H  -0.157601   1.233835   3.127063
    H   0.389202  -3.412156   0.577252
    H  -1.720893  -2.704270   1.352612
    H  -2.425898  -0.394188   2.553470
    H  -2.371822   2.270508   1.877350
    H  -0.417724   3.614805   1.005686
    H   0.888423   2.921944  -1.264938
    H  -0.683586   1.695310  -2.567519
    H  -0.609705  -0.871627  -3.321692
    H   0.920469  -2.358006  -2.286860
    H  -1.524197  -2.631294  -1.589309
    H  -2.732241   0.320885  -2.286250
    H  -1.929175   2.824266  -1.074617
    H  -3.866910   1.017455   0.109967
    H  -3.450714  -1.601563  -0.157642
    C   2.083984  -0.415887  -1.148202
    C  -0.511201   1.056849  -1.716638
