48
B22C2H24
    B   1.630766  -1.975738  -0.486964
    B   1.777476  -1.515996   1.288457
    B   1.935573  -0.199947  -1.472028
    B   1.689250   0.271157   1.399277
    B   1.311791   1.533105  -1.372366
    B   1.080227   1.894867   0.508358
    B  -1.075982  -0.949653  -1.648208
    B  -1.143275  -1.844336   0.700845
    B  -1.886102   0.622788  -1.290680
    B  -1.718972  -0.294350   1.452082
    B  -1.888059   2.076871  -0.221356
    B   0.418630  -2.477380   0.872329
    B  -0.124828  -2.408987  -0.763132
    B   0.128379  -0.974369   1.838013
    B  -0.090211   1.001448   1.810146
    B  -0.555285   2.430689   0.800910
    B  -0.303325   2.077484  -0.974512
    B   0.057589   0.452112  -2.023864
    B   2.711335  -0.671095   0.177839
    B   2.388111   0.950420  -0.186493
    B  -2.261259  -0.869470  -0.273663
    B  -2.748560   0.669067   0.287224
    H   3.419899   1.524852  -0.249434
    H   3.865433  -0.902153   0.265408
    H   2.437757  -2.127048   2.055900
    H   2.223663   0.634292   2.389221
    H   1.671983   2.838230   0.909061
    H   1.804079   2.318228  -2.102813
    H   2.657880  -0.327189  -2.397152
    H   2.308563  -2.796985  -1.001768
    H   0.038003  -1.182805   2.997173
    H   0.022853   1.315698   2.939474
    H   0.440501  -3.553809   1.357262
    H  -1.858142  -2.689042   1.126096
    H  -2.340717  -0.619356   2.400498
    H  -2.259428   1.858414   2.183777
    H  -0.576842   3.516009   1.261787
    H  -0.448420   2.972576  -1.738228
    H  -0.001747   0.624023  -3.191383
    H   0.753380  -1.665905  -2.671241
    H  -0.454022  -3.389780  -1.326705
    H  -1.599944  -1.470601  -2.568371
    H  -2.568651   0.817781  -2.236309
    H  -2.596099   3.001952  -0.401406
    H  -3.903436   0.837203   0.459054
    H  -3.213847  -1.515468  -0.539450
    C  -1.719989   1.415211   1.355907
    C   0.564179  -1.233137  -1.697179
