48
B22C2H24
    B   1.575419  -1.946008  -0.489252
    B   1.778132  -1.547766   1.261888
    B   1.932729  -0.175056  -1.443312
    B   1.728260   0.234781   1.456367
    B   1.274073   1.595939  -1.239247
    B   1.143197   1.865014   0.640698
    B  -1.071020  -0.891989  -1.831120
    B  -1.127690  -1.866818   0.910972
    B  -1.904398   0.610856  -1.329577
    B  -1.635088  -0.272542   1.502199
    B  -1.927294   2.046417  -0.251330
    B   0.418884  -2.482492   0.859138
    B  -0.393115  -2.211667  -0.709985
    B   0.159079  -1.002705   1.920007
    B  -0.061708   1.036340   1.791134
    B  -0.519295   2.421053   0.687088
    B  -0.447974   2.006495  -1.145240
    B   0.159498   0.476368  -2.060199
    B   2.696781  -0.676164   0.157735
    B   2.405016   0.966690  -0.130120
    B  -2.104011  -0.942553  -0.329441
    B  -2.711985   0.597579   0.280722
    H   3.433770   1.544934  -0.188716
    H   3.854009  -0.906920   0.196505
    H   2.470591  -2.179376   1.983433
    H   2.296827   0.528873   2.450178
    H   1.718280   2.802089   1.078817
    H   1.757610   2.413452  -1.941180
    H   2.661753  -0.324140  -2.358979
    H   2.158677  -2.826483  -1.017571
    H   0.108915  -1.182851   3.085719
    H   0.024154   1.395390   2.910369
    H   0.473323  -3.599331   1.239068
    H  -1.890961  -2.657945   1.346098
    H  -2.310607  -0.529463   2.437202
    H  -2.245503   1.869372   2.115484
    H  -0.567402   3.522339   1.106409
    H  -0.585940   2.870419  -1.942878
    H   0.178269   0.679300  -3.223299
    H   0.765799  -1.707067  -2.634737
    H  -0.679707  -3.226911  -1.239552
    H  -1.531544  -1.365994  -2.806185
    H  -2.663029   0.776021  -2.222218
    H  -2.673898   2.943894  -0.409609
    H  -3.867605   0.671502   0.496604
    H  -3.079485  -1.571617  -0.555885
    C  -1.702357   1.407861   1.303042
    C   0.528727  -1.189244  -1.715852
