48
B22C2H24
    B   1.554846  -1.914840  -0.487686
    B   1.703666  -1.563633   1.245075
    B   1.966080  -0.190736  -1.378749
    B   1.823527   0.235897   1.532507
    B   1.032161   1.733979  -0.931085
    B   1.276176   1.813851   0.873586
    B  -1.040067  -0.744493  -1.995624
    B  -1.245463  -1.679579   0.885165
    B  -2.140995   0.523273  -1.325078
    B  -1.420765  -0.106743   1.841220
    B  -1.966965   1.902911  -0.288348
    B   0.316372  -2.412647   0.814155
    B  -0.578843  -2.054288  -0.757382
    B   0.125949  -0.990759   1.958428
    B   0.046219   1.048751   1.896516
    B  -0.350424   2.298696   0.344481
    B  -0.705746   1.740800  -1.448376
    B   0.386198   0.501411  -2.135040
    B   2.695531  -0.680703   0.173684
    B   2.427625   0.976621  -0.065512
    B  -2.112252  -1.067187  -0.610082
    B  -2.600822   0.360350   0.408778
    H   3.425801   1.583869  -0.237255
    H   3.844405  -0.951929   0.200649
    H   2.376412  -2.251130   1.933607
    H   2.414522   0.409055   2.542018
    H   1.778798   2.779342   1.332815
    H   1.468043   2.659314  -1.526674
    H   2.734067  -0.273896  -2.271573
    H   2.048786  -2.856191  -0.998506
    H   0.105067  -1.312325   3.096380
    H   0.076356   1.509159   2.983026
    H   0.298777  -3.536017   1.175886
    H  -2.006499  -2.451098   1.357839
    H  -2.049397  -0.254271   2.827150
    H  -2.104086   2.003557   1.976177
    H  -0.438091   3.444665   0.613235
    H  -0.876279   2.534020  -2.307322
    H   0.598190   0.722555  -3.273058
    H   0.817298  -1.672068  -2.635990
    H  -0.777906  -3.115888  -1.234622
    H  -1.383605  -1.133473  -3.053776
    H  -3.013224   0.695390  -2.106331
    H  -2.705682   2.815192  -0.384629
    H  -3.715143   0.337355   0.789581
    H  -3.082916  -1.699512  -0.846222
    C  -1.590590   1.395132   1.246295
    C   0.565046  -1.111864  -1.747939
