48
B22C2H24
    B   1.680205  -1.961987  -0.424838
    B   1.789938  -1.516583   1.365528
    B   1.845810  -0.159339  -1.389006
    B   1.750890   0.286915   1.423639
    B   1.492366   1.644860  -1.316934
    B   1.206038   2.008233   0.540165
    B  -1.464891  -1.539463  -1.317741
    B  -1.190868  -1.991542   0.528402
    B  -1.984751   0.206775  -1.363032
    B  -1.712559  -0.303753   1.454035
    B  -1.592416   1.847275  -0.603434
    B   0.474684  -2.455028   0.808163
    B  -0.000183  -2.357157  -0.859392
    B   0.096861  -0.998309   1.797267
    B  -0.099664   0.923344   1.778588
    B  -0.467985   2.446494   0.771662
    B   0.060947   2.412668  -0.881644
    B  -0.106443   0.836889  -1.817456
    B   2.686298  -0.667562   0.196443
    B   2.478174   0.971293  -0.127491
    B  -2.500170  -0.949261  -0.124235
    B  -2.725122   0.678793   0.226397
    H   3.540990   1.483954  -0.221302
    H   3.840577  -0.928256   0.227982
    H   2.421052  -2.095126   2.180046
    H   2.234281   0.665551   2.433530
    H   1.784733   2.895547   1.071617
    H   2.059314   2.317481  -2.107016
    H   2.390075  -0.393497  -2.410900
    H   2.329625  -2.728477  -1.047102
    H  -0.037300  -1.269536   2.941171
    H  -0.068575   1.278001   2.903819
    H   0.516017  -3.556396   1.240347
    H  -1.842116  -2.838542   1.039544
    H  -2.323929  -0.506742   2.441531
    H  -2.197866   1.918759   1.932193
    H  -0.648811   3.493583   1.286947
    H   0.002162   3.441509  -1.464337
    H  -0.269131   1.046109  -2.970047
    H   0.288412  -1.166881  -2.730059
    H  -0.016511  -3.302775  -1.564700
    H  -1.911156  -2.186773  -2.197176
    H  -2.577399   0.374833  -2.370951
    H  -2.380346   2.664652  -0.937101
    H  -3.834652   1.040861   0.401156
    H  -3.542468  -1.501197  -0.233440
    C  -1.626421   1.379038   1.172374
    C   0.152438  -0.889359  -1.681818
