48
B22C2H24
    B   1.550894  -1.962298  -0.470645
    B   1.690703  -1.569980   1.269107
    B   2.085565  -0.437002  -1.403269
    B   1.805629   0.239323   1.495718
    B   0.912438   1.887743  -0.885294
    B   1.252943   1.815497   0.836376
    B  -0.968778  -0.531316  -1.990241
    B  -1.275491  -1.650491   0.862223
    B  -2.242022   0.513583  -1.272784
    B  -1.395881  -0.086857   1.876359
    B  -1.999702   1.878695  -0.263181
    B   0.293025  -2.402813   0.814105
    B  -0.574403  -1.999214  -0.761670
    B   0.123643  -0.979634   1.982928
    B   0.068391   1.012995   1.906466
    B  -0.378424   2.329491   0.367979
    B  -0.770319   1.602026  -1.518197
    B   0.616404   0.550858  -2.061335
    B   2.678663  -0.679633   0.196684
    B   2.344415   0.959814  -0.223815
    B  -2.115156  -1.074472  -0.655673
    B  -2.580431   0.322633   0.451942
    H   3.333681   1.561123  -0.461258
    H   3.838008  -0.889244   0.286681
    H   2.367061  -2.241846   1.968421
    H   2.434733   0.435314   2.477843
    H   1.808734   2.738383   1.322198
    H   1.296759   2.855457  -1.446484
    H   2.867354  -0.577439  -2.274886
    H   2.011473  -2.939370  -0.945621
    H   0.104888  -1.347927   3.106397
    H   0.117141   1.487236   2.986485
    H   0.271896  -3.524016   1.181454
    H  -2.027824  -2.436852   1.323094
    H  -2.022673  -0.220051   2.866303
    H  -2.085100   2.019406   1.985058
    H  -0.484642   3.478120   0.613559
    H  -0.963651   2.347676  -2.413412
    H   0.885260   0.795865  -3.182611
    H   0.774261  -1.675619  -2.641660
    H  -0.800875  -3.032908  -1.286432
    H  -1.300644  -0.881218  -3.066844
    H  -3.125414   0.677928  -2.041308
    H  -2.722560   2.803962  -0.355789
    H  -3.683923   0.266288   0.861947
    H  -3.051500  -1.740022  -0.932162
    C  -1.577045   1.403123   1.256161
    C   0.612654  -1.102443  -1.739524
