48
B22C2H24
    B   1.576471  -1.987087  -0.469748
    B   1.701089  -1.566629   1.273354
    B   2.120431  -0.533536  -1.417872
    B   1.772910   0.229610   1.477839
    B   0.866120   1.949172  -0.860491
    B   1.247917   1.811138   0.825167
    B  -0.946318  -0.487184  -1.955576
    B  -1.239711  -1.682737   0.869677
    B  -2.245007   0.530192  -1.264301
    B  -1.417576  -0.108951   1.829481
    B  -2.009184   1.898256  -0.268851
    B   0.318637  -2.426214   0.816855
    B  -0.572873  -1.996670  -0.754837
    B   0.121731  -0.993864   1.972115
    B   0.067418   1.007155   1.904549
    B  -0.388787   2.342325   0.396815
    B  -0.771988   1.573511  -1.537992
    B   0.698667   0.566030  -1.997877
    B   2.681941  -0.674476   0.187046
    B   2.272723   0.950045  -0.330261
    B  -2.108627  -1.056741  -0.603998
    B  -2.624597   0.382198   0.435229
    H   3.261991   1.549364  -0.575636
    H   3.846385  -0.826951   0.313161
    H   2.377795  -2.216146   1.993427
    H   2.424162   0.453596   2.439730
    H   1.830520   2.711444   1.321762
    H   1.238360   2.930958  -1.403975
    H   2.891274  -0.675787  -2.297965
    H   2.011662  -2.982003  -0.932673
    H   0.089105  -1.342995   3.101143
    H   0.109467   1.457784   2.993747
    H   0.311608  -3.550086   1.176294
    H  -1.992653  -2.468508   1.332038
    H  -2.057596  -0.263576   2.808472
    H  -2.072585   2.013109   1.996463
    H  -0.496650   3.485843   0.665088
    H  -0.960001   2.296743  -2.452839
    H   0.972620   0.815227  -3.117132
    H   0.744848  -1.681645  -2.639201
    H  -0.830693  -3.012853  -1.299163
    H  -1.267893  -0.815142  -3.042205
    H  -3.125141   0.661736  -2.042459
    H  -2.702017   2.846326  -0.358373
    H  -3.728936   0.328696   0.841411
    H  -3.044120  -1.726495  -0.875441
    C  -1.573599   1.407345   1.252788
    C   0.620858  -1.121654  -1.723393
