48
B22C2H24
    B   1.601589  -1.992810  -0.467116
    B   1.721987  -1.569866   1.271562
    B   2.128752  -0.551111  -1.417121
    B   1.724084   0.202444   1.502754
    B   0.844609   1.969408  -0.857634
    B   1.256315   1.797339   0.816768
    B  -0.936248  -0.471450  -1.919796
    B  -1.197411  -1.735795   0.886734
    B  -2.247796   0.548474  -1.259415
    B  -1.465790  -0.150003   1.753708
    B  -2.001172   1.930777  -0.279416
    B   0.347057  -2.448820   0.815041
    B  -0.570129  -1.995530  -0.754619
    B   0.128585  -1.008153   1.964403
    B   0.049866   0.998809   1.887255
    B  -0.382604   2.343137   0.431928
    B  -0.773544   1.548685  -1.560744
    B   0.742622   0.572287  -1.977744
    B   2.680448  -0.654612   0.192955
    B   2.244662   0.956451  -0.408289
    B  -2.105459  -1.023958  -0.509894
    B  -2.669970   0.460926   0.416474
    H   3.232572   1.554244  -0.662660
    H   3.848025  -0.769040   0.328587
    H   2.408889  -2.211291   1.989496
    H   2.374871   0.434628   2.463128
    H   1.859295   2.679570   1.320599
    H   1.201201   2.961501  -1.393078
    H   2.900289  -0.707551  -2.294615
    H   2.042566  -2.984978  -0.930503
    H   0.082077  -1.329087   3.100750
    H   0.080952   1.435034   2.982147
    H   0.357438  -3.578983   1.154603
    H  -1.948612  -2.524295   1.347257
    H  -2.112980  -0.317138   2.725887
    H  -2.058260   2.007472   2.011916
    H  -0.480452   3.486041   0.708066
    H  -0.957164   2.259942  -2.486122
    H   1.009632   0.817165  -3.099416
    H   0.731198  -1.688386  -2.636034
    H  -0.856594  -2.989903  -1.322922
    H  -1.276304  -0.814381  -2.995885
    H  -3.117938   0.644404  -2.053073
    H  -2.665792   2.897969  -0.376057
    H  -3.776754   0.432355   0.818167
    H  -3.043105  -1.700214  -0.758617
    C  -1.579083   1.412656   1.246324
    C   0.623738  -1.134484  -1.714345
