48
B22C2H24
    B   1.550245  -1.951338  -0.471245
    B   1.687886  -1.569950   1.271845
    B   2.077305  -0.424334  -1.399475
    B   1.822173   0.244502   1.501466
    B   0.924594   1.876952  -0.887566
    B   1.251764   1.811615   0.825708
    B  -0.971325  -0.516859  -1.999505
    B  -1.289977  -1.633084   0.859247
    B  -2.255679   0.504333  -1.272335
    B  -1.390983  -0.078880   1.894277
    B  -1.996437   1.863417  -0.261512
    B   0.285715  -2.383176   0.812110
    B  -0.584604  -1.996710  -0.763914
    B   0.128992  -0.966854   1.984421
    B   0.076391   1.010715   1.912443
    B  -0.375862   2.316582   0.365291
    B  -0.766314   1.584220  -1.512454
    B   0.609061   0.544340  -2.073186
    B   2.680038  -0.677031   0.196489
    B   2.363329   0.960022  -0.202848
    B  -2.117751  -1.083921  -0.681410
    B  -2.571468   0.294147   0.457776
    H   3.351599   1.563065  -0.439419
    H   3.835094  -0.910127   0.286376
    H   2.361454  -2.246468   1.969054
    H   2.447843   0.448972   2.483505
    H   1.799849   2.740479   1.310761
    H   1.300689   2.846610  -1.449730
    H   2.864222  -0.555121  -2.268614
    H   1.990505  -2.936717  -0.947851
    H   0.106343  -1.332111   3.109251
    H   0.127580   1.497788   2.986238
    H   0.256768  -3.504864   1.178264
    H  -2.038654  -2.429474   1.308345
    H  -2.014967  -0.220323   2.884797
    H  -2.091836   2.022551   1.975494
    H  -0.487945   3.466111   0.603510
    H  -0.965907   2.342648  -2.396249
    H   0.880222   0.782504  -3.195222
    H   0.776413  -1.672477  -2.641364
    H  -0.795509  -3.039198  -1.276717
    H  -1.295812  -0.864297  -3.079482
    H  -3.138742   0.689702  -2.036158
    H  -2.713749   2.793316  -0.350336
    H  -3.673184   0.239275   0.872946
    H  -3.052347  -1.751761  -0.958894
    C  -1.576441   1.396858   1.259448
    C   0.609577  -1.095772  -1.742185
