48
B22C2H24
    B   1.555333  -1.929316  -0.491861
    B   1.772922  -1.554421   1.252358
    B   1.930070  -0.177769  -1.433777
    B   1.736573   0.227961   1.470896
    B   1.257425   1.610586  -1.203389
    B   1.165180   1.851576   0.692508
    B  -1.066547  -0.861844  -1.888080
    B  -1.119842  -1.870015   0.975048
    B  -1.919136   0.595275  -1.344552
    B  -1.611419  -0.263383   1.519173
    B  -1.932098   2.025414  -0.265647
    B   0.413652  -2.479373   0.850894
    B  -0.473942  -2.126210  -0.688534
    B   0.161991  -1.014439   1.947250
    B  -0.054351   1.049286   1.792319
    B  -0.502621   2.408650   0.642896
    B  -0.481175   1.998064  -1.194143
    B   0.177809   0.488484  -2.073555
    B   2.697348  -0.678647   0.155374
    B   2.406899   0.969133  -0.117778
    B  -2.042448  -0.975349  -0.342343
    B  -2.693184   0.567163   0.276900
    H   3.434944   1.548752  -0.175141
    H   3.853847  -0.914267   0.184163
    H   2.473636  -2.192630   1.960497
    H   2.317856   0.494823   2.465401
    H   1.734810   2.787413   1.139945
    H   1.743066   2.435054  -1.896496
    H   2.663636  -0.327747  -2.345624
    H   2.104912  -2.827700  -1.025367
    H   0.127851  -1.183951   3.115000
    H   0.020688   1.417501   2.909369
    H   0.478858  -3.608389   1.191787
    H  -1.897005  -2.646709   1.408963
    H  -2.304732  -0.500943   2.447189
    H  -2.242117   1.873872   2.094163
    H  -0.560748   3.516689   1.043563
    H  -0.620206   2.847959  -2.005257
    H   0.228982   0.702199  -3.233635
    H   0.770031  -1.712712  -2.620155
    H  -0.756643  -3.148653  -1.207646
    H  -1.510419  -1.336936  -2.869461
    H  -2.709943   0.745733  -2.211996
    H  -2.687652   2.916927  -0.414653
    H  -3.847821   0.618493   0.501677
    H  -3.020888  -1.606104  -0.552889
    C  -1.694986   1.404310   1.288064
    C   0.521757  -1.163940  -1.722028
