48
B22C2H24-6
    B   1.747136  -1.395060   0.995429
    B   0.020145  -0.868650   1.828153
    B  -0.004800  -1.989681   0.167728
    B   2.837304   0.094987   1.004911
    B   2.841672  -0.912214  -0.407260
    B   1.395846   0.179965   1.903442
    B   1.412424  -1.743378  -0.813118
    B   0.020222   1.195985   1.632796
    B   0.004002  -1.138936  -1.633504
    B  -1.753781   0.155696   1.646913
    B  -1.777939  -1.519770  -0.724859
    B  -2.850196  -0.812074   0.578433
    B   2.841707   0.819716  -0.570911
    B   1.747319   1.557089   0.716301
    B   1.781306  -0.160784  -1.700628
    B  -2.850283   0.906060   0.416090
    B  -2.864203  -0.094459  -0.999611
    B  -1.417795  -0.181600  -1.921191
    B   1.412466   1.559884  -1.125659
    B  -1.778327   1.356948  -0.997037
    B   0.004315   0.812119  -1.818476
    B  -0.004898   1.985821  -0.208631
    H  -0.052504  -1.382704   2.888503
    H   2.122220  -2.303154   1.654065
    H  -0.067211  -3.159781   0.313845
    H  -1.665618  -2.234799   1.610398
    H  -3.752392  -1.411561   1.040873
    H  -3.752472   1.581488   0.758207
    H  -2.071420   0.262301   2.774837
    H  -0.052463   1.899677   2.578008
    H   1.693214   0.287751   3.043590
    H   3.799600   0.159326   1.685641
    H   3.817410  -1.528089  -0.658582
    H   1.729352  -2.800124  -1.237913
    H  -0.003419  -1.836946  -2.589599
    H  -2.136367  -2.593091  -1.055494
    H  -3.863570  -0.153575  -1.623289
    H  -1.774757  -0.287820  -3.042711
    H   2.154108  -0.266451  -2.817489
    H   3.817464   1.377541  -0.933232
    H   2.122157   2.572560   1.193173
    H  -1.665532   2.497191   1.162878
    H  -2.136617   2.349309  -1.523008
    H  -0.067291   3.162589  -0.284348
    H  -0.003278   1.318598  -2.888447
    H   1.729458   2.518188  -1.741096
    C  -1.341891  -1.402672   1.001271
    C  -1.341898   1.565613   0.720579
