48
B22C2H24-23
    B   1.519251  -1.865808  -0.577878
    B   1.747144  -1.501835   1.260711
    B   1.778161  -0.031107  -1.432026
    B   1.744625   0.299911   1.416240
    B   1.531740   1.758777  -1.270255
    B   1.239932   2.062800   0.581339
    B  -1.496807  -1.715720  -1.271146
    B  -1.238568  -2.007021   0.637909
    B  -1.691050   0.063211  -1.431796
    B  -1.699370  -0.287839   1.445485
    B  -1.516513   1.845656  -0.582331
    B  -1.754276   1.486879   1.254995
    B   0.441181  -2.460303   0.835584
    B   0.074955  -0.976961   1.808784
    B  -0.081824   0.958628   1.779723
    B  -0.449020   2.466091   0.820875
    B   0.094777   2.523098  -0.820784
    B   0.069882  -0.937912  -1.774779
    B  -0.035239   0.964784  -1.753637
    B   2.599228  -0.625455   0.108010
    B   2.506774   1.015761  -0.117885
    B  -2.630825   0.619861   0.112456
    H   3.593328   1.480651  -0.163336
    H   3.725956  -0.987788   0.087197
    H   2.414477  -2.104119   2.028309
    H   2.319182   0.573709   2.410994
    H   1.844560   2.905783   1.152213
    H   2.108972   2.428398  -2.053710
    H   2.364582  -0.250346  -2.433997
    H   2.163956  -2.684725  -1.132615
    H  -0.028080  -1.269839   2.948693
    H  -0.002071   1.191694   2.935651
    H   0.471557  -3.564071   1.250222
    H  -1.871081  -2.919572   1.033066
    H  -2.373848  -0.664002   2.338318
    H  -2.476535   2.073400   1.983588
    H  -0.603333   3.520765   1.330959
    H   0.035059   3.583320  -1.338841
    H  -0.229101   1.133082  -2.910528
    H   0.164978  -1.307745  -2.891234
    H  -0.077669  -3.294627  -1.214356
    H  -2.114478  -2.428942  -1.975463
    H  -2.425334   0.152028  -2.350982
    H  -2.261120   2.568388  -1.153115
    H  -3.789850   0.840100   0.098575
    H  -3.299531  -1.374016  -0.149232
    C  -2.311571  -0.932006  -0.123618
    C  -0.097005  -2.325143  -0.734958
