48
B22C2H24
    B   1.657798  -1.887819  -0.509187
    B   1.716951  -1.577926   1.189015
    B   1.925743  -0.156297  -1.347258
    B   1.827471   0.192533   1.572200
    B   1.035127   1.643842  -0.941827
    B   1.295196   1.770264   0.971092
    B  -1.030772  -0.803682  -2.017726
    B  -1.177021  -1.668803   0.921292
    B  -2.075494   0.504166  -1.358626
    B  -1.309590  -0.095150   1.819942
    B  -1.942956   1.911766  -0.354643
    B   0.353808  -2.469203   0.746764
    B  -0.850080  -1.945324  -0.731012
    B   0.141068  -0.906140   1.905688
    B   0.032110   1.111506   1.867382
    B  -0.360580   2.268990   0.406400
    B  -0.708472   1.701207  -1.423213
    B   0.306313   0.464051  -2.099019
    B   2.739015  -0.659277   0.156735
    B   2.398457   1.035037  -0.006752
    B  -2.069118  -1.076543  -0.590254
    B  -2.579179   0.418533   0.360064
    H   3.385206   1.649183  -0.215832
    H   3.904347  -0.838086   0.212915
    H   2.338030  -2.287781   1.904835
    H   2.386814   0.331182   2.603292
    H   1.821490   2.684925   1.505442
    H   1.487884   2.563232  -1.532186
    H   2.657141  -0.213096  -2.273518
    H   2.119425  -2.819079  -1.066463
    H   0.138367  -1.230391   3.046540
    H   0.055425   1.593228   2.945305
    H   0.310233  -3.604861   1.060463
    H  -1.930697  -2.384263   1.487179
    H  -1.970877  -0.261838   2.780349
    H  -2.192041   1.941909   1.986218
    H  -0.391467   3.432543   0.592642
    H  -0.920283   2.447804  -2.317571
    H   0.468731   0.696943  -3.243511
    H   0.831264  -1.699358  -2.561706
    H  -1.018617  -3.009908  -1.217629
    H  -1.361772  -1.132328  -3.099144
    H  -2.901836   0.635646  -2.193925
    H  -2.685853   2.821685  -0.455128
    H  -3.694731   0.334050   0.728989
    H  -3.075810  -1.665904  -0.788971
    C  -1.628681   1.380231   1.257297
    C   0.542670  -1.141519  -1.681543
