48
B22C2H24
    B   1.779320  -2.002686  -0.419880
    B   1.774207  -1.504378   1.416325
    B   2.029082  -0.296445  -1.379433
    B   1.705923   0.299699   1.429370
    B   1.405481   1.487073  -1.404948
    B   1.132110   1.901837   0.570950
    B  -1.230418  -1.076803  -1.478473
    B  -1.136421  -1.835151   0.541680
    B  -2.204064   0.446773  -1.346858
    B  -1.697987  -0.299007   1.441252
    B  -1.777621   1.944961  -0.397899
    B   0.465366  -2.449850   0.771273
    B   0.018002  -2.280114  -0.881714
    B   0.106689  -0.985363   1.810743
    B  -0.095643   0.989039   1.781476
    B  -0.522330   2.396103   0.730310
    B  -0.071606   2.193116  -0.939557
    B  -0.259160   0.614096  -1.899452
    B   2.740541  -0.703283   0.258787
    B   2.419224   0.917827  -0.185004
    B  -2.413342  -0.888726  -0.212005
    B  -2.755011   0.709427   0.290859
    H   3.427740   1.535729  -0.242204
    H   3.900183  -0.880260   0.412881
    H   2.359221  -2.080492   2.265282
    H   2.257098   0.649500   2.414530
    H   1.721262   2.825693   1.014171
    H   1.866475   2.091688  -2.308680
    H   2.731933  -0.400335  -2.327218
    H   2.364508  -2.813275  -1.047606
    H  -0.022466  -1.250921   2.954302
    H  -0.012898   1.284716   2.920382
    H   0.490182  -3.547336   1.211034
    H  -1.798048  -2.735679   0.927702
    H  -2.301340  -0.612848   2.403628
    H  -2.213950   1.907433   2.125103
    H  -0.614826   3.497692   1.147889
    H  -0.097318   3.184648  -1.586185
    H  -0.371808   0.771270  -3.062464
    H   0.601316  -1.330695  -2.764483
    H  -0.227581  -3.314051  -1.397721
    H  -1.656946  -1.630697  -2.432514
    H  -2.925047   0.602963  -2.264318
    H  -2.422184   2.905696  -0.643000
    H  -3.889143   0.932285   0.534988
    H  -3.357593  -1.589352  -0.328902
    C  -1.681903   1.406259   1.309028
    C   0.460954  -0.987902  -1.732030
