48
B22C2H24
    B   1.619900  -1.942449  -0.499588
    B   1.786866  -1.499133   1.251593
    B   1.910507  -0.205263  -1.475767
    B   1.698635   0.269710   1.376231
    B   1.304322   1.536345  -1.363824
    B   1.096959   1.904821   0.526176
    B  -1.085093  -0.988311  -1.649178
    B  -1.146371  -1.851662   0.686727
    B  -1.873589   0.588005  -1.278663
    B  -1.735865  -0.292976   1.439759
    B  -1.883689   2.074079  -0.251489
    B   0.421426  -2.455921   0.873100
    B  -0.104461  -2.449770  -0.763767
    B   0.117688  -0.974870   1.807253
    B  -0.088873   0.991182   1.817231
    B  -0.558817   2.441291   0.816543
    B  -0.265672   2.119722  -0.929024
    B   0.053419   0.483671  -1.964599
    B   2.707187  -0.669852   0.149408
    B   2.389852   0.948172  -0.199976
    B  -2.294237  -0.890492  -0.274690
    B  -2.754169   0.673427   0.274417
    H   3.430825   1.497446  -0.300806
    H   3.856447  -0.922659   0.225236
    H   2.459787  -2.109777   2.007413
    H   2.213095   0.638159   2.374745
    H   1.699428   2.834352   0.939525
    H   1.809848   2.342170  -2.060109
    H   2.598256  -0.354920  -2.423103
    H   2.345358  -2.774320  -0.925486
    H   0.019279  -1.169266   2.967564
    H   0.017797   1.293839   2.948161
    H   0.450514  -3.516559   1.388958
    H  -1.851123  -2.683287   1.154039
    H  -2.356374  -0.594887   2.395140
    H  -2.263534   1.860937   2.145910
    H  -0.602555   3.513691   1.301452
    H  -0.417909   3.016159  -1.688388
    H   0.087246   0.665382  -3.130047
    H   0.721695  -1.694281  -2.660680
    H  -0.404662  -3.421991  -1.352297
    H  -1.617678  -1.544344  -2.544232
    H  -2.543392   0.794873  -2.232596
    H  -2.617093   2.979641  -0.418383
    H  -3.901086   0.877788   0.447512
    H  -3.256421  -1.514136  -0.550321
    C  -1.718553   1.420058   1.327329
    C   0.525036  -1.243916  -1.703015
