48
B22C2H24
    B   1.598093  -1.884231  -0.519363
    B   1.770106  -1.502321   1.318762
    B   1.786170  -0.104749  -1.403476
    B   1.748234   0.295518   1.428602
    B   1.501179   1.680159  -1.290802
    B   1.216832   2.036029   0.558655
    B  -1.487446  -1.638037  -1.278760
    B  -1.212424  -2.033824   0.551493
    B  -1.839645   0.120135  -1.398186
    B  -1.716571  -0.300504   1.429228
    B  -1.554428   1.859869  -0.585875
    B   0.464974  -2.456066   0.816831
    B  -0.045553  -2.431295  -0.834454
    B   0.085590  -0.971113   1.794681
    B  -0.092111   0.930551   1.774428
    B  -0.470111   2.429589   0.791741
    B   0.069175   2.456015  -0.854193
    B  -0.070855   0.902947  -1.805203
    B   2.648851  -0.651069   0.162457
    B   2.488605   0.989767  -0.115485
    B  -2.490836  -0.965097  -0.115232
    B  -2.636321   0.668012   0.167468
    H   3.557376   1.491618  -0.175525
    H   3.791662  -0.953346   0.186530
    H   2.427649  -2.087376   2.106325
    H   2.275572   0.626632   2.432028
    H   1.797667   2.913675   1.097459
    H   2.075089   2.349579  -2.076165
    H   2.328985  -0.339705  -2.424972
    H   2.280950  -2.634268  -1.125539
    H  -0.040000  -1.239898   2.938608
    H  -0.058001   1.246849   2.909945
    H   0.552066  -3.539269   1.280697
    H  -1.845011  -2.889258   1.067343
    H  -2.320462  -0.531276   2.414556
    H  -2.260016   1.945610   1.905617
    H  -0.636685   3.474404   1.316944
    H   0.018753   3.504328  -1.396965
    H  -0.206163   1.072904  -2.965149
    H   0.207623  -1.134009  -2.706764
    H  -0.032148  -3.428936  -1.462639
    H  -2.007716  -2.286395  -2.114876
    H  -2.439596   0.305445  -2.395888
    H  -2.329380   2.636625  -1.021101
    H  -3.761054   1.013248   0.268666
    H  -3.563570  -1.455190  -0.181978
    C  -1.654592   1.407893   1.185059
    C   0.079651  -0.900293  -1.654139
