48
B22C2H24-5
    B   3.266366   0.127849  -0.996175
    B   2.280340   1.534880  -0.650313
    B   2.306983  -1.341110  -0.957672
    B   0.531908   1.553353  -0.658801
    B   0.525747  -1.350035  -0.875053
    B  -1.409412   1.575903  -0.668969
    B  -1.542774  -1.333623  -1.010330
    B  -3.272771  -0.793747  -0.598542
    B  -3.273177  -0.121275   0.985766
    B  -2.317046  -1.550409   0.657730
    B  -2.243092   1.320448   0.955413
    B  -0.492724   1.378356   0.995747
    B   1.766848  -1.622674   0.688082
    B   1.496680   1.325762   1.007378
    B   3.364099  -0.897669   0.381060
    B   3.266009   0.805144   0.601790
    B   2.306387  -0.244088   1.630360
    B   0.525122  -0.309693   1.578474
    B  -1.543668  -0.199997   1.660895
    B  -2.242527   0.229997  -1.614090
    B  -0.492109   0.241551  -1.683267
    B   1.497409   0.197944  -1.653136
    H  -4.205574  -1.299682  -1.108000
    H  -1.604299  -2.307347  -1.660897
    H  -0.473977   2.304777   1.714989
    H   0.381558  -2.328599  -1.501251
    H   2.586578  -2.223011  -1.692005
    H   4.101138   0.255799  -1.822995
    H   1.587037   0.287120  -2.822089
    H  -0.473175   0.367781  -2.849298
    H  -2.703945   0.379221  -2.687651
    H  -3.950786   1.475077  -0.626806
    H  -1.687553   2.628372  -1.115647
    H   0.422739   2.633549  -1.116919
    H   2.642758   2.569288  -1.088739
    H   4.100505   1.488508   1.084980
    H   1.586041   2.227923   1.756088
    H  -2.704822   2.196304   1.593685
    H  -4.206331  -0.106502   1.703156
    H  -2.642188  -2.594397   1.100576
    H  -0.458422  -2.360151   1.002254
    H   1.556002  -2.692310   1.141529
    H   4.291051  -1.574309   0.668158
    H   2.585719  -0.329361   2.774850
    H   0.380717  -0.539675   2.717240
    H  -1.605100  -0.408376   2.813263
    C  -3.150279   0.806688  -0.342955
    C  -0.660238  -1.383751   0.587370
