48
B22C2H24
    B   1.768331  -2.020277  -0.373356
    B   1.789328  -1.503348   1.387377
    B   1.922049  -0.250374  -1.368287
    B   1.728573   0.283583   1.416160
    B   1.458690   1.586069  -1.354156
    B   1.173944   1.956856   0.534539
    B  -1.393313  -1.375736  -1.390496
    B  -1.154082  -1.912592   0.503087
    B  -2.168090   0.319652  -1.317761
    B  -1.710509  -0.305060   1.453775
    B  -1.655914   1.841619  -0.536426
    B   0.476698  -2.430838   0.774620
    B   0.058512  -2.271457  -0.898997
    B   0.092237  -0.992770   1.777973
    B  -0.100024   0.940342   1.783450
    B  -0.488848   2.439946   0.763188
    B   0.022282   2.331834  -0.898891
    B  -0.196183   0.739900  -1.849435
    B   2.710386  -0.700380   0.220344
    B   2.444978   0.925161  -0.165309
    B  -2.484115  -0.909078  -0.160011
    B  -2.795919   0.697173   0.288184
    H   3.499329   1.450551  -0.271596
    H   3.870021  -0.910113   0.312197
    H   2.391776  -2.065412   2.232115
    H   2.231736   0.673083   2.411246
    H   1.771851   2.840979   1.046470
    H   2.012828   2.249048  -2.158187
    H   2.543725  -0.434306  -2.355740
    H   2.413286  -2.819326  -0.955699
    H  -0.051970  -1.251998   2.921423
    H  -0.028688   1.254741   2.916380
    H   0.483248  -3.528948   1.212152
    H  -1.801297  -2.779368   0.977944
    H  -2.300675  -0.565524   2.439144
    H  -2.203796   1.933706   1.977147
    H  -0.656553   3.504724   1.240841
    H  -0.031292   3.341948  -1.510655
    H  -0.347798   1.027443  -2.988598
    H   0.441089  -1.213856  -2.787035
    H  -0.030870  -3.274805  -1.515946
    H  -1.840123  -2.029213  -2.262013
    H  -2.800068   0.475164  -2.302873
    H  -2.348788   2.746240  -0.865701
    H  -3.895416   1.046419   0.526175
    H  -3.466617  -1.556677  -0.283693
    C  -1.665031   1.399988   1.222390
    C   0.311241  -0.904837  -1.766068
