48
B22C2H24-12
    B   1.765597  -1.372161   1.005524
    B   0.000256  -0.804598   1.758845
    B   0.006558  -1.928445   0.186725
    B  -1.421997  -1.596884   1.127495
    B   2.827738   0.096663   1.006639
    B   1.423080   0.190558   1.945462
    B   1.428746  -1.771251  -0.810132
    B  -0.005464   1.120404   1.581185
    B   0.005450  -1.120462  -1.581194
    B  -1.764057   0.134945   1.693311
    B  -1.793525  -1.554754  -0.712438
    B  -2.826648  -0.824936   0.583794
    B   2.826647   0.824907  -0.583781
    B   1.793520   1.554715   0.712441
    B   1.764060  -0.134978  -1.693314
    B  -1.428749   1.771217   0.810133
    B  -2.827733  -0.096691  -1.006630
    B  -1.423083  -0.190587  -1.945459
    B   1.421994   1.596853  -1.127486
    B  -1.765597   1.372127  -1.005517
    B  -0.000226   0.804529  -1.758868
    B  -0.006588   1.928389  -0.186754
    H  -0.000353  -1.299181   2.837607
    H   2.226722  -2.297298   1.572984
    H   0.008466  -3.110263   0.278636
    H  -1.764889  -2.523216   1.775950
    H  -3.865399  -1.235337   0.959367
    H  -3.584259   1.362049   0.623683
    H  -2.225365   0.309069   2.764560
    H  -0.009927   1.822536   2.536210
    H   1.765429   0.304782   3.070525
    H   3.866764   0.080903   1.562184
    H   3.584246  -1.362083  -0.623674
    H   1.823038  -2.781200  -1.272933
    H   0.009921  -1.822593  -2.536219
    H  -2.167283  -2.573161  -1.178835
    H  -3.866760  -0.080939  -1.562176
    H  -1.765445  -0.304820  -3.070516
    H   2.225385  -0.309108  -2.764554
    H   3.865396   1.235304  -0.959364
    H   2.167253   2.573131   1.178838
    H  -1.823030   2.781168   1.272937
    H  -2.226722   2.297257  -1.572988
    H  -0.008475   3.110208  -0.278659
    H   0.000365   1.299111  -2.837630
    H   1.764881   2.523179  -1.775952
    C  -2.678791   0.825695   0.377537
    C   2.678776  -0.825727  -0.377528
