48
B22C2H24-7
    B   1.739463  -1.398319   0.957360
    B  -0.000060  -0.837114   1.828502
    B  -0.017519  -2.014734   0.132216
    B   2.823456   0.086110   1.001347
    B   2.849995  -0.918103  -0.410431
    B   1.406953  -1.737018  -0.818338
    B   0.017419   1.216491   1.611390
    B   0.001349  -1.131772  -1.638402
    B  -1.739510   0.189159   1.683957
    B  -1.759832  -1.524457  -0.725748
    B  -2.823469  -0.814155   0.589069
    B   2.853903   0.813794  -0.570828
    B   1.759842   1.545489   0.679703
    B   1.800998  -0.162134  -1.696083
    B  -1.406953   1.754590   0.779900
    B  -2.850000   0.910689   0.426559
    B  -2.853847  -0.099699  -0.989180
    B  -1.420496  -0.167702  -1.928275
    B   1.420607   1.569120  -1.133103
    B  -1.800942   1.389777  -0.985771
    B   0.000086   0.818057  -1.787126
    B  -0.001307   1.979748  -0.214072
    H  -0.000141  -1.327536   2.899906
    H   2.091376  -2.223510   1.724064
    H  -0.067409  -3.181995   0.300103
    H  -1.630516  -2.234906   1.622304
    H  -3.709608  -1.435609   1.055658
    H  -3.832053   1.478715   0.751498
    H  -2.091445   0.148117   2.809603
    H   0.067236   1.852217   2.604635
    H   1.630334   0.232484   2.751865
    H   3.709543   0.139033   1.776716
    H   3.832041  -1.535279  -0.628014
    H   1.732868  -2.803266  -1.213252
    H   0.003857  -1.823282  -2.599413
    H  -2.123842  -2.602181  -1.038737
    H  -3.849469  -0.200123  -1.615342
    H  -1.772791  -0.303699  -3.047931
    H   2.174972  -0.278077  -2.810849
    H   3.849557   1.353335  -0.903991
    H   2.123800   2.486700   1.290940
    H  -1.732863   2.750318   1.328874
    H  -2.174865   2.309326  -1.626564
    H  -0.003777   3.159065  -0.318694
    H   0.000115   1.311475  -2.865036
    H   1.772972   2.505454  -1.761869
    C  -1.321863  -1.403055   1.003202
    C   1.321763   0.157485   1.717645
