48
B22C2H24
    B   1.601696  -1.992107  -0.466652
    B   1.722581  -1.568682   1.271512
    B   2.128804  -0.551499  -1.417410
    B   1.722379   0.201163   1.504962
    B   0.841658   1.971250  -0.856653
    B   1.256501   1.795691   0.817077
    B  -0.936461  -0.472025  -1.919145
    B  -1.194140  -1.740249   0.888072
    B  -2.245882   0.548848  -1.259811
    B  -1.469175  -0.153084   1.747269
    B  -1.998143   1.933007  -0.281403
    B   0.349772  -2.451681   0.815309
    B  -0.568733  -1.996956  -0.754308
    B   0.128304  -1.010628   1.964338
    B   0.048826   0.998010   1.888003
    B  -0.381867   2.345030   0.437940
    B  -0.774046   1.546232  -1.565745
    B   0.744922   0.573202  -1.976561
    B   2.679261  -0.652213   0.192708
    B   2.242621   0.957759  -0.414008
    B  -2.104239  -1.022242  -0.502041
    B  -2.671700   0.467567   0.414543
    H   3.230976   1.554515  -0.668982
    H   3.846685  -0.765498   0.330607
    H   2.412091  -2.209395   1.987659
    H   2.372445   0.431628   2.466220
    H   1.861633   2.677303   1.319561
    H   1.195933   2.963999  -1.392382
    H   2.900990  -0.710232  -2.293898
    H   2.042512  -2.983779  -0.931386
    H   0.081408  -1.329258   3.101299
    H   0.078646   1.433114   2.983313
    H   0.360694  -3.581408   1.156081
    H  -1.946130  -2.529203   1.346530
    H  -2.118341  -0.322057   2.717787
    H  -2.057733   2.007142   2.012068
    H  -0.478230   3.487907   0.714608
    H  -0.957935   2.257376  -2.491151
    H   1.012445   0.817791  -3.098236
    H   0.730753  -1.687602  -2.636417
    H  -0.857124  -2.990237  -1.323460
    H  -1.279004  -0.816830  -2.993817
    H  -3.117037   0.643148  -2.052606
    H  -2.660985   2.901289  -0.379434
    H  -3.778337   0.441168   0.816732
    H  -3.043622  -1.697031  -0.748214
    C  -1.578550   1.413700   1.245505
    C   0.623037  -1.134067  -1.714591
