48
B22C2H24
    B   1.618022  -1.982117  -0.488992
    B   1.779173  -1.522770   1.286136
    B   1.918267  -0.178440  -1.473344
    B   1.689785   0.266783   1.410581
    B   1.302211   1.540651  -1.354339
    B   1.071594   1.895147   0.496954
    B  -1.074401  -0.941620  -1.670849
    B  -1.139166  -1.846912   0.720220
    B  -1.848277   0.646531  -1.285529
    B  -1.711138  -0.292953   1.455982
    B  -1.900257   2.087450  -0.201828
    B   0.417287  -2.483305   0.876698
    B  -0.147591  -2.394381  -0.754638
    B   0.137932  -0.971225   1.852088
    B  -0.089724   1.005255   1.810202
    B  -0.553970   2.436443   0.806184
    B  -0.342633   2.051035  -0.988673
    B   0.114143   0.426238  -2.026405
    B   2.706844  -0.664650   0.175890
    B   2.387380   0.957413  -0.174602
    B  -2.235065  -0.854608  -0.276958
    B  -2.748686   0.665407   0.288065
    H   3.418397   1.533466  -0.227628
    H   3.862406  -0.893861   0.244942
    H   2.445642  -2.137954   2.044540
    H   2.231697   0.628394   2.396507
    H   1.659619   2.844897   0.889168
    H   1.783844   2.332671  -2.084182
    H   2.639183  -0.320829  -2.396682
    H   2.280798  -2.798540  -1.028675
    H   0.053157  -1.185685   3.010626
    H   0.026876   1.332286   2.935879
    H   0.434536  -3.565971   1.346814
    H  -1.862159  -2.687895   1.138069
    H  -2.338512  -0.622186   2.399507
    H  -2.262183   1.858073   2.183378
    H  -0.568114   3.521138   1.267871
    H  -0.490990   2.935455  -1.763671
    H   0.031463   0.574672  -3.195321
    H   0.764645  -1.712140  -2.657468
    H  -0.477718  -3.374816  -1.318433
    H  -1.594383  -1.443592  -2.602019
    H  -2.519960   0.844253  -2.237905
    H  -2.615472   3.005373  -0.386993
    H  -3.906573   0.817831   0.452493
    H  -3.190609  -1.493928  -0.550739
    C  -1.721163   1.414090   1.358368
    C   0.564002  -1.250698  -1.699894
