48
B22C2H24-18
    B   1.536514  -1.879846  -0.571957
    B   1.744317  -1.498223   1.282522
    B   1.726670  -0.057744  -1.427527
    B   1.671530   0.309875   1.425130
    B   1.520222   1.725985  -1.259748
    B   1.222419   2.063308   0.575404
    B  -1.517706  -1.726542  -1.262065
    B  -1.223539  -2.063024   0.573838
    B  -1.724300   0.057010  -1.430714
    B  -1.674326  -0.309436   1.421886
    B  -1.535154   1.879406  -0.576102
    B  -1.746716   1.498635   1.278342
    B   0.465677  -2.480817   0.808555
    B  -0.081206  -2.489071  -0.836501
    B   0.076005  -0.971398   1.773155
    B  -0.079184   0.972428   1.772507
    B  -0.467244   2.481269   0.806556
    B   0.082947   2.488818  -0.837393
    B   0.040948  -0.956134  -1.806953
    B  -0.037743   0.955489  -1.807159
    B   2.503289   0.999142  -0.109405
    B  -2.503066  -0.999371  -0.113773
    H   3.615106   1.394615  -0.096869
    H   3.457152  -0.856964   0.157735
    H   2.513780  -2.019515   2.008051
    H   2.369593   0.531971   2.349161
    H   1.847401   2.903987   1.126666
    H   2.138457   2.408080  -2.000942
    H   2.430668  -0.318422  -2.336503
    H   2.330223  -2.592142  -1.077731
    H  -0.045776  -1.221746   2.922631
    H   0.040209   1.223264   2.922130
    H   0.593810  -3.535064   1.327205
    H  -1.849495  -2.903527   1.124263
    H  -2.374108  -0.530998   2.344743
    H  -2.517594   2.020311   2.002091
    H  -0.596583   3.535672   1.324574
    H   0.022852   3.543726  -1.367789
    H  -0.156592   1.199484  -2.957642
    H   0.162090  -1.200627  -2.957083
    H  -0.019986  -3.544210  -1.366317
    H  -2.134432  -2.408922  -2.004252
    H  -2.426461   0.317289  -2.341231
    H  -2.327856   2.591707  -1.083447
    H  -3.457504   0.857048   0.150597
    H  -3.614894  -1.394860  -0.103188
    C   2.411154  -0.579755   0.130478
    C  -2.411410   0.579716   0.125466
