48
B22C2H24-0
    B   3.270980   0.128561  -0.977790
    B   2.277823   1.535988  -0.643786
    B   2.280664  -1.320507  -0.994535
    B   0.531021   1.526868  -0.637309
    B   0.523101  -1.345242  -1.012627
    B  -1.366640   1.574372  -0.662900
    B  -1.525705  -1.349186  -1.017798
    B  -3.245064  -0.813294  -0.614076
    B  -2.247105  -1.495055   0.682376
    B  -2.251461   1.295949   0.976508
    B  -0.504479  -1.540210   0.651728
    B  -0.512687   1.328148   1.002255
    B   1.523915  -1.559460   0.660938
    B   1.559346   1.369377   1.032271
    B   3.271912  -0.904272   0.393532
    B   3.271248   0.802432   0.604541
    B   2.277868  -0.195441   1.654009
    B   0.531142  -0.193300   1.644387
    B  -1.368081  -0.203502   1.693550
    B  -2.246157   0.245906  -1.625814
    B  -0.503228   0.204277  -1.658979
    B   1.522425   0.204395  -1.679376
    H  -4.222337  -1.333482  -1.007233
    H  -1.667926  -2.281041  -1.721376
    H  -0.498416   2.267399   1.711086
    H   0.412148  -2.277821  -1.716573
    H   2.633579  -2.220020  -1.673258
    H   4.136490   0.226676  -1.776952
    H   1.592340   0.348452  -2.845166
    H  -0.489315   0.308938  -2.830213
    H  -2.735603   0.417889  -2.684344
    H  -4.016129   1.432377  -0.543486
    H  -1.689853   2.625279  -1.084263
    H   0.398922   2.600719  -1.109973
    H   2.625471   2.566816  -1.104661
    H   4.144284   1.439051   1.084903
    H   1.586879   2.308183   1.740222
    H  -2.777885   2.135875   1.611166
    H  -4.016806  -0.128171   1.525477
    H  -2.737647  -2.465102   1.138506
    H  -0.490652  -2.636839   1.076064
    H   1.592324  -2.640481   1.120789
    H   4.138222  -1.644924   0.707156
    H   2.625439  -0.354470   2.771957
    H   0.398281  -0.353018   2.806618
    H  -1.690420  -0.319670   2.820068
    C  -3.160959   0.800605  -0.354731
    C  -3.161520  -0.120220   0.866343
