48
B22C2H24
    B   1.563532  -1.916571  -0.491001
    B   1.717197  -1.562845   1.240063
    B   1.957477  -0.181020  -1.384894
    B   1.807528   0.230892   1.520485
    B   1.081440   1.722952  -0.983621
    B   1.261736   1.822666   0.846152
    B  -1.045893  -0.775980  -1.977484
    B  -1.218908  -1.721911   0.902887
    B  -2.094963   0.537950  -1.332072
    B  -1.459585  -0.138422   1.788507
    B  -1.964951   1.927965  -0.283629
    B   0.337167  -2.431455   0.817126
    B  -0.575688  -2.076518  -0.743398
    B   0.134381  -0.993054   1.948742
    B   0.027462   1.054349   1.871543
    B  -0.379982   2.330421   0.397347
    B  -0.667695   1.806531  -1.408714
    B   0.349521   0.500876  -2.123070
    B   2.699267  -0.681093   0.168501
    B   2.426049   0.975190  -0.069918
    B  -2.101416  -1.057419  -0.558582
    B  -2.623205   0.401330   0.383777
    H   3.433589   1.573349  -0.218355
    H   3.849913  -0.944056   0.198458
    H   2.391718  -2.242263   1.935182
    H   2.394599   0.416257   2.530028
    H   1.780536   2.778053   1.309327
    H   1.531325   2.630686  -1.595248
    H   2.719375  -0.275352  -2.281737
    H   2.068877  -2.850949  -1.004326
    H   0.114828  -1.287876   3.093746
    H   0.065389   1.499555   2.963860
    H   0.333975  -3.556156   1.175357
    H  -1.977673  -2.494536   1.377694
    H  -2.102477  -0.303108   2.763091
    H  -2.133983   1.984320   1.996589
    H  -0.460807   3.471156   0.689458
    H  -0.835231   2.608906  -2.260321
    H   0.531450   0.716962  -3.267650
    H   0.803683  -1.694430  -2.626755
    H  -0.785880  -3.132434  -1.228308
    H  -1.408668  -1.179181  -3.023568
    H  -2.950614   0.704400  -2.132905
    H  -2.711314   2.833551  -0.384443
    H  -3.747371   0.389375   0.734827
    H  -3.076708  -1.685804  -0.787103
    C  -1.612779   1.400047   1.252014
    C   0.553937  -1.135429  -1.736266
