48
B22C2H24-17
    B   1.524422  -1.805469  -0.614718
    B   1.749520  -1.508808   1.262284
    B   1.788814  -0.045797  -1.422433
    B   1.734448   0.297192   1.422212
    B   1.526686   1.727245  -1.268427
    B   1.229607   2.058603   0.573991
    B  -1.521038  -1.735477  -1.247949
    B  -1.231632  -2.061618   0.587859
    B  -1.713636   0.044903  -1.430121
    B  -1.697999  -0.309735   1.428310
    B  -1.531478   1.867574  -0.587261
    B  -1.758254   1.509469   1.269962
    B  -0.080204  -2.494056  -0.831431
    B   0.070558  -0.936456   1.758492
    B  -0.080451   0.964595   1.767299
    B  -0.458060   2.468318   0.812177
    B   0.087025   2.484735  -0.836480
    B   0.054009  -0.954660  -1.788837
    B  -0.037749   0.961310  -1.806640
    B   2.621449  -0.629674   0.125897
    B   2.512457   1.012298  -0.106039
    B  -2.497459  -0.990306  -0.104744
    H   3.591385   1.494883  -0.117388
    H   3.753614  -0.968476   0.184401
    H   2.350981  -2.153275   2.045697
    H   2.301740   0.554466   2.425657
    H   1.832765   2.904185   1.141560
    H   2.110845   2.415179  -2.031770
    H   2.390377  -0.282784  -2.411793
    H   2.199033  -2.663014  -1.066192
    H  -0.042091  -1.306713   2.873888
    H  -0.008028   1.165243   2.930216
    H   0.529075  -3.259735   1.207645
    H  -1.784505  -2.950227   1.134943
    H  -2.391127  -0.523739   2.357854
    H  -2.531936   2.034122   1.988318
    H  -0.596310   3.515337   1.343234
    H   0.003451   3.544751  -1.353864
    H  -0.196534   1.202620  -2.952833
    H   0.157716  -1.218556  -2.935688
    H  -0.025852  -3.596966  -1.244917
    H  -2.129214  -2.425422  -1.989345
    H  -2.425709   0.283413  -2.338732
    H  -2.324165   2.579319  -1.095939
    H  -3.466757   0.855306   0.147080
    H  -3.598400  -1.414857  -0.062966
    C   0.427413  -2.293443   0.732964
    C  -2.418645   0.584077   0.125960
