48
B22C2H24
    B   1.615532  -1.917298  -0.497673
    B   1.747870  -1.565062   1.225286
    B   1.927649  -0.161631  -1.393956
    B   1.780453   0.212263   1.511254
    B   1.168841   1.655334  -1.086492
    B   1.231543   1.830037   0.805325
    B  -1.061012  -0.857776  -1.932606
    B  -1.152503  -1.785987   0.925331
    B  -1.996067   0.559230  -1.346145
    B  -1.498625  -0.190719   1.680927
    B  -1.945553   1.976317  -0.294940
    B   0.389435  -2.479765   0.809775
    B  -0.616561  -2.102507  -0.718993
    B   0.149157  -0.969522   1.913442
    B  -0.016702   1.073675   1.824145
    B  -0.441651   2.369802   0.530405
    B  -0.587715   1.888616  -1.306321
    B   0.255743   0.477216  -2.084699
    B   2.714499  -0.672706   0.156036
    B   2.412716   0.988545  -0.068649
    B  -2.091809  -1.015440  -0.460032
    B  -2.654796   0.505592   0.327006
    H   3.434098   1.568327  -0.195671
    H   3.874813  -0.885930   0.201709
    H   2.409367  -2.233588   1.943904
    H   2.348983   0.422816   2.525685
    H   1.785457   2.754442   1.293824
    H   1.642582   2.525803  -1.730441
    H   2.665237  -0.271952  -2.309364
    H   2.140923  -2.823789  -1.040607
    H   0.127767  -1.223621   3.068808
    H   0.033087   1.496406   2.924444
    H   0.401407  -3.608033   1.154954
    H  -1.908670  -2.545902   1.424893
    H  -2.170370  -0.401055   2.628211
    H  -2.212232   1.927321   2.042814
    H  -0.484742   3.507342   0.837667
    H  -0.761932   2.695826  -2.154204
    H   0.352717   0.686584  -3.241807
    H   0.795371  -1.701710  -2.596129
    H  -0.835957  -3.147575  -1.224318
    H  -1.459887  -1.263111  -2.963977
    H  -2.792168   0.706451  -2.208544
    H  -2.701198   2.872265  -0.418505
    H  -3.795450   0.501414   0.620933
    H  -3.083404  -1.624829  -0.672717
    C  -1.664741   1.404169   1.272971
    C   0.528658  -1.156411  -1.701565
