48
B22C2H24
    B   1.594544  -1.991016  -0.467408
    B   1.715170  -1.569450   1.271287
    B   2.128477  -0.545776  -1.416530
    B   1.735818   0.210084   1.489894
    B   0.852767   1.969257  -0.858852
    B   1.251251   1.803953   0.819575
    B  -0.938275  -0.478577  -1.930183
    B  -1.209662  -1.723546   0.884603
    B  -2.243794   0.542865  -1.261597
    B  -1.448457  -0.136134   1.784067
    B  -2.004296   1.922344  -0.275744
    B   0.337492  -2.443870   0.818069
    B  -0.573187  -1.993997  -0.757040
    B   0.126350  -1.005326   1.964473
    B   0.055174   1.003260   1.893560
    B  -0.388894   2.342114   0.419416
    B  -0.770862   1.555152  -1.550734
    B   0.737646   0.571823  -1.981228
    B   2.680397  -0.662003   0.191375
    B   2.249757   0.951869  -0.388803
    B  -2.104494  -1.033401  -0.536050
    B  -2.657463   0.439025   0.419076
    H   3.239189   1.549360  -0.638373
    H   3.846552  -0.788098   0.328207
    H   2.405209  -2.212872   1.984345
    H   2.384745   0.435461   2.453385
    H   1.854709   2.687230   1.320851
    H   1.209387   2.957454  -1.400874
    H   2.901099  -0.704183  -2.292772
    H   2.031390  -2.984575  -0.931636
    H   0.087082  -1.330471   3.100312
    H   0.088747   1.449242   2.984529
    H   0.343443  -3.572921   1.161327
    H  -1.966542  -2.509401   1.339854
    H  -2.097216  -0.301751   2.755169
    H  -2.063414   2.010740   2.009155
    H  -0.486804   3.485906   0.692423
    H  -0.959090   2.271655  -2.471233
    H   1.005931   0.818876  -3.102229
    H   0.735342  -1.683100  -2.639900
    H  -0.848090  -2.996534  -1.316668
    H  -1.276368  -0.815928  -3.008614
    H  -3.118135   0.650263  -2.049484
    H  -2.681084   2.880924  -0.374174
    H  -3.760752   0.399657   0.829787
    H  -3.041529  -1.707236  -0.793366
    C  -1.582896   1.409775   1.249351
    C   0.623793  -1.128249  -1.719204
