48
B22C2H24
    B   1.715751  -1.986519  -0.402074
    B   1.791379  -1.512598   1.371358
    B   1.898602  -0.187225  -1.388658
    B   1.744059   0.283814   1.418654
    B   1.484494   1.627357  -1.329525
    B   1.194911   1.989053   0.537017
    B  -1.450971  -1.482835  -1.344266
    B  -1.179217  -1.961155   0.518852
    B  -2.064876   0.250158  -1.342909
    B  -1.713921  -0.304364   1.457303
    B  -1.616171   1.839974  -0.583590
    B   0.474671  -2.444437   0.792307
    B   0.018115  -2.322359  -0.876784
    B   0.095473  -0.998679   1.787263
    B  -0.099901   0.927111   1.780238
    B  -0.475183   2.446285   0.767725
    B   0.048026   2.380665  -0.888736
    B  -0.136923   0.792981  -1.823303
    B   2.700813  -0.678957   0.205978
    B   2.471072   0.957505  -0.139151
    B  -2.502425  -0.934537  -0.133129
    B  -2.761511   0.687283   0.254386
    H   3.530269   1.476155  -0.233934
    H   3.857294  -0.920715   0.264578
    H   2.410227  -2.086037   2.197624
    H   2.228428   0.668212   2.425553
    H   1.778907   2.875020   1.063993
    H   2.044619   2.303270  -2.120307
    H   2.497068  -0.386155  -2.387777
    H   2.362555  -2.764957  -1.011143
    H  -0.041575  -1.265787   2.931082
    H  -0.051528   1.269336   2.907774
    H   0.501156  -3.545461   1.224515
    H  -1.826990  -2.812896   1.023898
    H  -2.315848  -0.524262   2.446385
    H  -2.196604   1.925358   1.944362
    H  -0.654520   3.499011   1.269576
    H  -0.011529   3.400264  -1.486380
    H  -0.288479   1.020483  -2.974855
    H   0.330085  -1.197008  -2.762165
    H  -0.022991  -3.287170  -1.555378
    H  -1.896714  -2.135071  -2.218572
    H  -2.668703   0.412344  -2.345237
    H  -2.370539   2.692620  -0.912336
    H  -3.864096   1.051729   0.457776
    H  -3.523226  -1.523706  -0.247340
    C  -1.640147   1.385222   1.187344
    C   0.196770  -0.898443  -1.726599
