48
B22C2H24
    B   1.654966  -1.932159  -0.454905
    B   1.785071  -1.512508   1.354560
    B   1.818992  -0.143872  -1.384340
    B   1.751686   0.291297   1.429794
    B   1.495174   1.649960  -1.305804
    B   1.210600   2.018960   0.546667
    B  -1.472387  -1.569441  -1.303690
    B  -1.196313  -2.006292   0.534428
    B  -1.934628   0.175309  -1.373548
    B  -1.712205  -0.302677   1.448353
    B  -1.577547   1.850521  -0.602705
    B   0.473422  -2.455244   0.810453
    B  -0.014013  -2.374643  -0.855084
    B   0.094850  -0.990979   1.799217
    B  -0.097943   0.925311   1.778927
    B  -0.466762   2.442204   0.776573
    B   0.066132   2.424104  -0.875229
    B  -0.089742   0.846525  -1.805900
    B   2.675081  -0.659517   0.190917
    B   2.482243   0.978536  -0.118221
    B  -2.497448  -0.955839  -0.118287
    B  -2.695962   0.674244   0.208333
    H   3.546946   1.488171  -0.204886
    H   3.826211  -0.934105   0.215550
    H   2.424546  -2.095475   2.159438
    H   2.245179   0.657726   2.439139
    H   1.788306   2.906071   1.078211
    H   2.063551   2.317114  -2.099285
    H   2.345893  -0.390954  -2.411844
    H   2.312528  -2.689656  -1.079822
    H  -0.037401  -1.264308   2.942632
    H  -0.071379   1.273321   2.906317
    H   0.528909  -3.553583   1.247924
    H  -1.842425  -2.856622   1.046039
    H  -2.323237  -0.510047   2.435138
    H  -2.210888   1.922950   1.922818
    H  -0.644211   3.488844   1.294775
    H   0.010278   3.456872  -1.450429
    H  -0.233096   1.011491  -2.966985
    H   0.235268  -1.116156  -2.730140
    H  -0.019260  -3.328611  -1.548963
    H  -1.936535  -2.215387  -2.175039
    H  -2.525784   0.348101  -2.380805
    H  -2.368385   2.651452  -0.964494
    H  -3.811004   1.031389   0.360124
    H  -3.551099  -1.486730  -0.215092
    C  -1.629114   1.384708   1.173007
    C   0.123097  -0.870500  -1.672444
