48
B22C2H24-4
    B   3.120053   0.308359  -0.725343
    B   1.967391   1.379408  -0.029555
    B   2.287874  -1.216116  -1.179032
    B   0.465656   1.923423  -0.668844
    B   0.452738  -1.145177  -1.263597
    B  -1.877537   1.619696  -1.096047
    B  -1.288184  -1.451315  -1.084538
    B  -3.291937   0.754329  -0.386434
    B  -2.866755  -0.896253  -0.118088
    B  -2.745137   0.176583   1.214997
    B  -1.489111  -1.052979   1.208895
    B  -2.368505   1.815991   0.649935
    B   1.569799  -1.949504   0.455461
    B   1.414552   0.784054   1.599022
    B   3.105684  -1.124536   0.355122
    B   3.029590   0.510161   1.041562
    B   2.110535  -0.798138   1.798644
    B   0.283512  -0.742416   1.582502
    B  -1.012204   0.857074   1.547542
    B  -2.321604  -0.040551  -1.571767
    B  -0.683809   0.044727  -2.039019
    B   1.472501   0.394355  -1.451694
    H  -3.564501  -1.848476  -0.151604
    H  -1.585772  -2.474034  -1.592891
    H  -0.735653   3.004059   0.505261
    H   0.585520  -2.019721  -2.067190
    H   2.761445  -1.866876  -2.040492
    H   4.059818   0.623352  -1.366071
    H   1.552875   0.818100  -2.552825
    H  -0.476479   0.235255  -3.178796
    H  -2.851907  -0.210904  -2.623951
    H  -4.421311   1.038125  -0.586538
    H  -2.003742   2.511431  -1.857444
    H   0.500252   2.741767  -1.522903
    H   2.096219   2.569943  -0.201115
    H   3.900557   1.092685   1.588829
    H   1.229513   1.542346   2.480000
    H  -2.880737   2.770337   1.118687
    H  -3.462895   0.020245   2.141673
    H  -1.831424  -1.901318   1.955413
    H  -0.364325  -2.756064   0.383793
    H   1.653215  -3.112014   0.637672
    H   4.024920  -1.851091   0.519952
    H   2.397500  -1.276620   2.838791
    H   0.073792  -1.316610   2.596142
    H  -0.961208   1.275092   2.647975
    C  -0.218623  -1.697512   0.232535
    C  -0.812399   1.937134   0.254608
