48
B22C2H24-15
    B   1.839293  -1.386316   1.003137
    B   0.012916  -0.866622   1.734058
    B   0.149431  -1.989752   0.249506
    B  -1.415356  -1.557997   0.962183
    B   2.860733   0.109491   1.011959
    B   2.905612  -0.886939  -0.405926
    B   1.419759   0.171838   1.910262
    B   1.483191  -1.772921  -0.811507
    B  -0.006118   1.120516   1.621145
    B   0.149476  -1.111522  -1.669073
    B  -1.761747   0.130642   1.662320
    B  -2.929770  -0.767329   0.606989
    B   2.860764   0.837451  -0.578314
    B   1.740150   1.560210   0.714259
    B   1.839359  -0.146721  -1.704786
    B  -2.850956   0.958594   0.438699
    B  -2.929724  -0.041955  -0.977658
    B  -1.415243  -0.289878  -1.808111
    B   1.419833   1.558186  -1.118214
    B  -1.761630   1.343647  -0.987566
    B   0.013012   0.746192  -1.789194
    B  -0.006043   1.959340  -0.211215
    H  -0.079257  -1.381413   2.795382
    H   2.216058  -2.293320   1.663187
    H   0.024161  -3.164433   0.297648
    H  -1.820449  -2.482355   1.576865
    H  -3.882888  -1.320032   1.020960
    H  -3.742296   1.659250   0.759406
    H  -2.102487   0.326995   2.773055
    H  -0.066154   1.816641   2.573451
    H   1.693530   0.304599   3.052606
    H   3.822525   0.209041   1.689756
    H   3.885970  -1.486044  -0.680160
    H   1.827482  -2.801137  -1.282177
    H   0.024256  -1.842760  -2.589669
    H  -2.316489  -2.338570  -1.070576
    H  -3.882805  -0.089800  -1.666593
    H  -1.820267  -0.428677  -2.909505
    H   2.216146  -0.239886  -2.822653
    H   3.822576   1.415528  -0.945882
    H   2.094325   2.585988   1.183844
    H  -1.634678   2.526282   1.156423
    H  -2.102297   2.312721  -1.564830
    H  -0.066057   3.135087  -0.306632
    H  -0.079072   1.213074  -2.872454
    H   1.693657   2.509605  -1.764239
    C  -1.356913   1.576375   0.721582
    C  -1.985593  -1.401889  -0.641784
