48
B22C2H24
    B   1.551041  -1.957463  -0.470331
    B   1.690179  -1.570037   1.269528
    B   2.078781  -0.426128  -1.402372
    B   1.813099   0.241019   1.498760
    B   0.919746   1.881174  -0.888382
    B   1.252435   1.813846   0.832951
    B  -0.970939  -0.530641  -1.994961
    B  -1.281169  -1.644253   0.861674
    B  -2.244645   0.510070  -1.273531
    B  -1.394333  -0.084373   1.882396
    B  -1.997616   1.873575  -0.261930
    B   0.290067  -2.394592   0.813329
    B  -0.579648  -1.999459  -0.762058
    B   0.126696  -0.973720   1.983089
    B   0.070175   1.012628   1.907815
    B  -0.377134   2.324342   0.367663
    B  -0.767930   1.598693  -1.514058
    B   0.608779   0.546709  -2.068116
    B   2.679183  -0.678567   0.195581
    B   2.354547   0.960853  -0.211406
    B  -2.116264  -1.077967  -0.666333
    B  -2.576715   0.311654   0.453680
    H   3.343614   1.562588  -0.448044
    H   3.836674  -0.899253   0.284085
    H   2.366216  -2.244308   1.966707
    H   2.439457   0.439343   2.481901
    H   1.804050   2.739492   1.319060
    H   1.301564   2.848383  -1.451538
    H   2.863633  -0.562234  -2.272284
    H   2.003372  -2.937632  -0.946609
    H   0.106179  -1.339767   3.107422
    H   0.120533   1.492278   2.985259
    H   0.265826  -3.516126   1.179827
    H  -2.032829  -2.434240   1.317166
    H  -2.019129  -0.221203   2.873069
    H  -2.089557   2.020042   1.981170
    H  -0.484706   3.473424   0.610228
    H  -0.964274   2.350892  -2.403414
    H   0.877548   0.787177  -3.190285
    H   0.777851  -1.675320  -2.639107
    H  -0.797831  -3.037577  -1.281128
    H  -1.300460  -0.881427  -3.072128
    H  -3.126730   0.684247  -2.041353
    H  -2.719343   2.799875  -0.352624
    H  -3.679700   0.256545   0.865293
    H  -3.053089  -1.743121  -0.942476
    C  -1.578111   1.400273   1.257630
    C   0.611066  -1.099839  -1.739420
