48
B22C2H24
    B   3.314330   0.120438  -0.980690
    B   2.303790   1.516345  -0.643818
    B   2.304070  -1.315227  -0.990948
    B   0.540877   1.523448  -0.648275
    B   0.540601  -1.322427  -0.996946
    B  -1.556540   1.550176  -0.657129
    B  -1.556320  -1.344649  -1.013724
    B  -3.313212   0.910261  -0.386099
    B  -3.313133  -0.789097  -0.596034
    B  -3.314033  -0.120952   0.980682
    B  -2.303974  -1.516288   0.642697
    B  -2.303583   1.314752   0.991829
    B  -0.541014  -1.523694   0.647013
    B   1.556424  -1.549638   0.657804
    B   1.556376   1.344619   1.013293
    B   3.313129  -0.910181   0.386842
    B   3.312930   0.789483   0.595562
    B   2.303186  -0.201065   1.635324
    B  -1.557930  -0.206339   1.670904
    B  -2.303032   0.201742  -1.634915
    B  -0.540264   0.202437  -1.641585
    B   1.557601   0.204944  -1.671034
    H  -4.193286  -1.431128  -1.080474
    H  -1.629796  -2.287728  -1.725594
    H  -0.443871   2.261092   1.705247
    H   0.443815  -2.261029  -1.704741
    H   2.667558  -2.220597  -1.673840
    H   4.194846   0.217909  -1.778676
    H   1.630167   0.348856  -2.843858
    H  -0.443038   0.346001  -2.808406
    H  -2.666147   0.341011  -2.760531
    H  -4.193597   1.650539  -0.700051
    H  -1.629845   2.638321  -1.117829
    H   0.443790   2.605814  -1.107414
    H   2.667698   2.560299  -1.086480
    H   4.192812   1.431845   1.080005
    H   1.629755   2.288111   1.724655
    H  -2.667656   2.220068   1.674505
    H  -4.194458  -0.219377   1.778601
    H  -2.667831  -2.560701   1.084265
    H  -0.443908  -2.606288   1.105569
    H   1.629437  -2.637565   1.119071
    H   4.193613  -1.649968   0.701744
    H   2.666954  -0.339116   2.760847
    H   0.443212  -0.345657   2.808776
    H  -1.630537  -0.350955   2.843649
    C  -0.540679   1.322543   0.997437
    C   0.540462  -0.201581   1.642002
