48
B22C2H24
    B   1.501711  -1.929335  -0.486078
    B   1.680382  -1.572655   1.255659
    B   2.024191  -0.277646  -1.390328
    B   1.832107   0.248457   1.518242
    B   0.980232   1.794841  -0.906354
    B   1.264002   1.818560   0.851606
    B  -0.997448  -0.610488  -2.015052
    B  -1.303326  -1.618438   0.866300
    B  -2.232448   0.494918  -1.294743
    B  -1.371264  -0.055731   1.930852
    B  -1.980905   1.856910  -0.272784
    B   0.275769  -2.394605   0.818390
    B  -0.558341  -2.004655  -0.761215
    B   0.107415  -0.986571   1.986019
    B   0.088048   1.021157   1.922819
    B  -0.364081   2.304378   0.324562
    B  -0.756138   1.632942  -1.497271
    B   0.515011   0.531116  -2.131524
    B   2.670937  -0.678943   0.199992
    B   2.410449   0.970142  -0.109591
    B  -2.110509  -1.084724  -0.673811
    B  -2.548488   0.274050   0.455097
    H   3.407625   1.568276  -0.318474
    H   3.819574  -0.952045   0.244458
    H   2.352784  -2.260582   1.943258
    H   2.442409   0.418099   2.517136
    H   1.781999   2.768503   1.326579
    H   1.378470   2.751340  -1.477268
    H   2.814339  -0.400388  -2.258171
    H   2.005243  -2.879084  -0.972404
    H   0.104542  -1.369766   3.105470
    H   0.122303   1.520649   2.992501
    H   0.234459  -3.511712   1.194600
    H  -2.052515  -2.402876   1.335058
    H  -2.009524  -0.178145   2.914114
    H  -2.090003   2.026345   1.956407
    H  -0.458504   3.457108   0.555361
    H  -0.942575   2.408160  -2.368615
    H   0.759880   0.768310  -3.259549
    H   0.812442  -1.666950  -2.650756
    H  -0.775509  -3.050779  -1.265631
    H  -1.334235  -0.962119  -3.089314
    H  -3.116982   0.677529  -2.057391
    H  -2.722937   2.768127  -0.355279
    H  -3.651360   0.219439   0.867622
    H  -3.040028  -1.757414  -0.957059
    C  -1.567510   1.394319   1.251389
    C   0.598462  -1.088149  -1.763435
