48
B22C2H24
    B   1.617146  -1.986525  -0.478431
    B   1.791683  -1.532451   1.283206
    B   1.932897  -0.175542  -1.471356
    B   1.701690   0.247505   1.427230
    B   1.304368   1.548210  -1.316072
    B   1.071623   1.880355   0.512700
    B  -1.086175  -0.955808  -1.694234
    B  -1.127858  -1.845871   0.762184
    B  -1.862857   0.645046  -1.299520
    B  -1.694515  -0.288442   1.446961
    B  -1.919555   2.097717  -0.210333
    B   0.424862  -2.477060   0.871897
    B  -0.184691  -2.344227  -0.747669
    B   0.150953  -0.972577   1.866669
    B  -0.084818   1.007193   1.788927
    B  -0.556526   2.440252   0.794338
    B  -0.378229   2.016443  -1.032259
    B   0.132088   0.435863  -2.034053
    B   2.694814  -0.674707   0.161657
    B   2.398151   0.956993  -0.161273
    B  -2.207411  -0.853975  -0.287356
    B  -2.758817   0.669787   0.286517
    H   3.424374   1.541030  -0.204611
    H   3.853478  -0.897979   0.209273
    H   2.471338  -2.147596   2.029945
    H   2.254396   0.598717   2.410817
    H   1.655305   2.827099   0.919681
    H   1.776426   2.342778  -2.049855
    H   2.660606  -0.333258  -2.386764
    H   2.257310  -2.830340  -1.001348
    H   0.067432  -1.180232   3.026243
    H   0.029971   1.337243   2.914186
    H   0.445038  -3.567306   1.324244
    H  -1.862269  -2.673153   1.184600
    H  -2.338542  -0.601213   2.385445
    H  -2.262147   1.858438   2.172550
    H  -0.581115   3.522009   1.261827
    H  -0.489122   2.920070  -1.790089
    H   0.070925   0.620701  -3.198287
    H   0.744757  -1.708195  -2.667512
    H  -0.489760  -3.349426  -1.283548
    H  -1.579927  -1.441329  -2.648721
    H  -2.552896   0.829438  -2.241636
    H  -2.643428   3.009228  -0.390176
    H  -3.915166   0.794207   0.477975
    H  -3.164529  -1.498941  -0.542545
    C  -1.730492   1.420322   1.339385
    C   0.539371  -1.230616  -1.719414
