48
B22C2H24
    B   3.306633   0.129439  -0.954070
    B   2.297312   1.527580  -0.644583
    B   2.297941  -1.314195  -0.992659
    B   0.538108   1.524258  -0.673715
    B   0.537960  -1.337994  -1.033005
    B  -1.524948   1.537064  -0.660251
    B  -1.554665  -1.355929  -1.025415
    B  -3.277567   0.925648  -0.353799
    B  -3.305560  -0.776587  -0.570682
    B  -3.286613  -0.114691   1.015455
    B  -2.296916  -1.525067   0.650480
    B  -2.254145   1.295351   1.017773
    B  -0.537779  -1.543373   0.629179
    B   1.525183  -1.543042   0.646329
    B   1.559150   1.374108   0.995078
    B   3.277526  -0.897689   0.420635
    B   3.286415   0.809907   0.623870
    B   2.253306  -0.168427   1.638598
    B  -1.559794  -0.239607   1.679552
    B  -2.296970   0.199378  -1.634895
    B  -0.537179   0.187250  -1.678057
    B   1.555909   0.204440  -1.687154
    H  -4.187595  -1.403148  -1.042805
    H  -1.640611  -2.292839  -1.728927
    H  -0.413550   2.015033   1.628136
    H   0.454597  -2.269463  -1.739473
    H   2.670631  -2.217077  -1.653985
    H   4.188896   0.225155  -1.732480
    H   1.641068   0.350460  -2.849698
    H  -0.453242   0.327450  -2.838685
    H  -2.669426   0.352297  -2.743644
    H  -4.125830   1.695251  -0.641347
    H  -1.574627   2.635259  -1.065287
    H   0.415316   2.602245  -1.108543
    H   2.641699   2.567888  -1.082855
    H   4.139492   1.449147   1.133117
    H   1.536952   2.293791   1.732463
    H  -2.527465   2.205676   1.721028
    H  -4.140001  -0.193230   1.828631
    H  -2.641069  -2.563804   1.092694
    H  -0.415342  -2.605518   1.101550
    H   1.574660  -2.597785   1.153894
    H   4.125647  -1.639044   0.775092
    H   2.525197  -0.295359   2.782236
    H   0.409721  -0.230863   2.574987
    H  -1.537324  -0.349383   2.853194
    C  -0.557128   1.199027   0.934516
    C   0.555779  -0.159184   1.506760
