48
B22C2H24-10
    B   1.768859  -1.392131   0.962064
    B   0.026423  -0.858851   1.791737
    B  -0.002313  -1.977107   0.164416
    B  -1.407695  -1.583664   1.108137
    B   2.835261   0.098669   0.996167
    B   2.853083  -0.908747  -0.417370
    B   1.422567  -1.756469  -0.815061
    B   0.007149   1.155956   1.605601
    B  -0.003874  -1.135257  -1.590793
    B  -1.739941   0.144991   1.696230
    B  -1.795440  -1.554680  -0.709283
    B  -2.822813  -0.817115   0.588768
    B   2.851581   0.825948  -0.576664
    B   1.757934   1.545731   0.682498
    B   1.799962  -0.156472  -1.696991
    B  -1.417226   1.761141   0.794132
    B  -2.831073  -0.087415  -1.000036
    B  -1.420837  -0.191050  -1.939169
    B   1.418550   1.574041  -1.136078
    B  -1.763905   1.375486  -1.002208
    B   0.009783   0.795259  -1.778729
    B  -0.010852   1.961467  -0.210441
    H   0.037550  -1.284264   2.894476
    H   2.126609  -2.214638   1.728781
    H  -0.003992  -3.154859   0.281935
    H  -1.746489  -2.476752   1.805124
    H  -3.852377  -1.222361   0.993072
    H  -3.575409   1.367720   0.646142
    H  -2.201412   0.314968   2.767954
    H   0.042057   1.822853   2.580236
    H   1.653528   0.262292   2.759862
    H   3.731971   0.178485   1.757243
    H   3.845222  -1.503137  -0.654048
    H   1.766792  -2.796931  -1.256914
    H   0.000933  -1.820428  -2.557835
    H  -2.191193  -2.571071  -1.162483
    H  -3.874388  -0.065392  -1.547096
    H  -1.779718  -0.297576  -3.060178
    H   2.163402  -0.263300  -2.816447
    H   3.840596   1.375077  -0.914013
    H   2.103218   2.502136   1.280221
    H  -1.793023   2.755122   1.305703
    H  -2.228407   2.303663  -1.561877
    H  -0.010170   3.142537  -0.294811
    H  -0.015560   1.316135  -2.844264
    H   1.752977   2.521854  -1.757333
    C  -2.677163   0.828061   0.381304
    C   1.349190   0.159103   1.728286
