48
B22C2H24
    B   1.648465  -1.970573  -0.479627
    B   1.784008  -1.507887   1.277136
    B   1.937772  -0.217587  -1.471992
    B   1.691034   0.271302   1.388465
    B   1.304431   1.524126  -1.374548
    B   1.086087   1.891978   0.515285
    B  -1.071927  -0.944335  -1.651275
    B  -1.141142  -1.838484   0.686317
    B  -1.902532   0.617531  -1.277397
    B  -1.727388  -0.291661   1.446214
    B  -1.883885   2.066860  -0.230384
    B   0.422811  -2.464965   0.868199
    B  -0.105985  -2.417128  -0.773351
    B   0.123145  -0.975581   1.820342
    B  -0.090393   0.997002   1.813934
    B  -0.557518   2.433048   0.805035
    B  -0.285929   2.085687  -0.951847
    B   0.036094   0.443175  -1.993851
    B   2.717992  -0.672935   0.173642
    B   2.385701   0.944993  -0.196083
    B  -2.274417  -0.873654  -0.280113
    B  -2.758770   0.673855   0.289374
    H   3.420508   1.510542  -0.280770
    H   3.870906  -0.905989   0.267611
    H   2.443345  -2.117522   2.046719
    H   2.209984   0.642729   2.383758
    H   1.684050   2.829395   0.919471
    H   1.803496   2.321772  -2.086022
    H   2.648292  -0.343944  -2.406349
    H   2.356690  -2.799267  -0.938925
    H   0.026349  -1.173756   2.980507
    H   0.018894   1.301797   2.945225
    H   0.442349  -3.534600   1.368078
    H  -1.852720  -2.678697   1.126259
    H  -2.346301  -0.608490   2.398550
    H  -2.257126   1.863843   2.177429
    H  -0.589375   3.515472   1.270612
    H  -0.440851   2.974519  -1.719972
    H   0.017781   0.618430  -3.161260
    H   0.721853  -1.662606  -2.696337
    H  -0.431544  -3.391755  -1.347726
    H  -1.605504  -1.483003  -2.556446
    H  -2.579810   0.815652  -2.227100
    H  -2.592143   2.993540  -0.400685
    H  -3.908104   0.863680   0.469821
    H  -3.219934  -1.522222  -0.560912
    C  -1.718668   1.420035   1.345816
    C   0.540084  -1.224448  -1.719436
