48
B22C2H24
    B   1.579902  -1.986871  -0.467183
    B   1.705195  -1.567105   1.272147
    B   2.119004  -0.529018  -1.415809
    B   1.759841   0.223196   1.482278
    B   0.867357   1.953540  -0.863878
    B   1.248694   1.810243   0.823325
    B  -0.944984  -0.489735  -1.948788
    B  -1.230065  -1.699901   0.876149
    B  -2.242293   0.533352  -1.264035
    B  -1.427980  -0.117396   1.817466
    B  -2.004705   1.905363  -0.270844
    B   0.324667  -2.433201   0.817461
    B  -0.571240  -1.995463  -0.756849
    B   0.120886  -0.999889   1.968878
    B   0.063883   1.006695   1.903081
    B  -0.389274   2.340702   0.402783
    B  -0.771596   1.570505  -1.540326
    B   0.707164   0.565496  -1.997342
    B   2.680033  -0.669987   0.190325
    B   2.268148   0.951263  -0.347524
    B  -2.104769  -1.048534  -0.579170
    B  -2.635532   0.400657   0.429791
    H   3.259183   1.548262  -0.591685
    H   3.844256  -0.817859   0.322104
    H   2.388967  -2.213891   1.988068
    H   2.409001   0.445064   2.446229
    H   1.838197   2.705797   1.319764
    H   1.235327   2.935599  -1.409757
    H   2.893816  -0.676594  -2.292084
    H   2.016165  -2.980285  -0.931913
    H   0.087848  -1.336719   3.101745
    H   0.104506   1.459620   2.991284
    H   0.321233  -3.559152   1.170382
    H  -1.986147  -2.486685   1.330828
    H  -2.073407  -0.277562   2.791671
    H  -2.070742   2.012927   2.000114
    H  -0.491807   3.484777   0.672298
    H  -0.962865   2.294508  -2.453941
    H   0.975984   0.813488  -3.117906
    H   0.742094  -1.680231  -2.643458
    H  -0.831165  -3.009019  -1.304412
    H  -1.274125  -0.819587  -3.032269
    H  -3.120880   0.657791  -2.044953
    H  -2.691700   2.857313  -0.363782
    H  -3.738427   0.353273   0.840677
    H  -3.041104  -1.718980  -0.846400
    C  -1.577398   1.406517   1.252153
    C   0.621010  -1.122411  -1.725302
