48
B22C2H24
    B   1.585319  -1.953912  -0.497708
    B   1.788034  -1.544292   1.280831
    B   1.932033  -0.171757  -1.452691
    B   1.720999   0.237962   1.448639
    B   1.296992   1.571814  -1.285759
    B   1.108946   1.862781   0.586308
    B  -1.074972  -0.923531  -1.756186
    B  -1.126904  -1.862065   0.859410
    B  -1.878225   0.623731  -1.310947
    B  -1.667053  -0.284940   1.457979
    B  -1.915344   2.072087  -0.232779
    B   0.418051  -2.478194   0.871732
    B  -0.281627  -2.283499  -0.725387
    B   0.155405  -0.998587   1.903067
    B  -0.065974   1.016527   1.778608
    B  -0.542567   2.434908   0.739840
    B  -0.409921   1.985657  -1.092881
    B   0.134324   0.462652  -2.045023
    B   2.686533  -0.672737   0.157693
    B   2.404425   0.973542  -0.147526
    B  -2.149743  -0.892514  -0.309014
    B  -2.734811   0.639609   0.283472
    H   3.437240   1.542901  -0.215116
    H   3.843671  -0.899711   0.220099
    H   2.473830  -2.166317   2.015525
    H   2.270687   0.572334   2.439440
    H   1.695931   2.798628   1.013487
    H   1.772740   2.385962  -1.995526
    H   2.658078  -0.322987  -2.370533
    H   2.204378  -2.809596  -1.026334
    H   0.079755  -1.176039   3.067544
    H   0.030637   1.362945   2.901346
    H   0.457252  -3.584972   1.281503
    H  -1.877676  -2.672191   1.282860
    H  -2.328142  -0.572649   2.393949
    H  -2.254142   1.859845   2.146808
    H  -0.566335   3.530460   1.173777
    H  -0.560861   2.867001  -1.871817
    H   0.112013   0.649980  -3.210709
    H   0.751709  -1.695116  -2.655427
    H  -0.590571  -3.281720  -1.271831
    H  -1.571038  -1.382092  -2.721717
    H  -2.593125   0.795908  -2.236735
    H  -2.645393   2.979691  -0.409886
    H  -3.892541   0.728323   0.483915
    H  -3.109957  -1.538252  -0.549206
    C  -1.714694   1.414880   1.323804
    C   0.532790  -1.202582  -1.719501
