48
B22C2H24
    B   1.546411  -1.859665  -0.557064
    B   1.748690  -1.492505   1.285859
    B   1.773734  -0.084789  -1.424397
    B   1.748553   0.305504   1.419349
    B   1.504680   1.701875  -1.286818
    B   1.235270   2.051911   0.558643
    B  -1.496404  -1.691352  -1.272177
    B  -1.238822  -2.057380   0.562630
    B  -1.788337   0.072251  -1.414431
    B  -1.751700  -0.313889   1.418331
    B  -1.541646   1.857774  -0.566154
    B   0.449030  -2.454716   0.824376
    B  -0.068498  -2.468109  -0.821168
    B   0.071834  -0.959229   1.793512
    B  -0.079846   0.953298   1.784719
    B  -0.457402   2.440636   0.812170
    B   0.072148   2.476829  -0.836410
    B  -0.066827   0.937870  -1.803465
    B   2.624059  -0.644910   0.132803
    B   2.497111   0.990889  -0.130936
    B  -2.501424  -0.992709  -0.126957
    B  -2.623531   0.643434   0.135436
    H   3.578234   1.476968  -0.171734
    H   3.765579  -0.965106   0.165758
    H   2.425108  -2.077729   2.063775
    H   2.329099   0.602539   2.408055
    H   1.841653   2.921052   1.091256
    H   2.090183   2.375753  -2.066043
    H   2.384442  -0.294032  -2.417265
    H   2.270083  -2.621887  -1.107354
    H  -0.034147  -1.223042   2.943816
    H   0.004359   1.231716   2.931694
    H   0.562614  -3.521933   1.327031
    H  -1.854137  -2.927204   1.083582
    H  -2.345049  -0.594141   2.402623
    H  -2.363384   2.015153   1.982993
    H  -0.587332   3.500374   1.327338
    H   0.030898   3.541093  -1.357245
    H  -0.207453   1.173391  -2.955317
    H   0.228592  -1.101160  -2.778827
    H  -0.034227  -3.518552  -1.368505
    H  -2.066655  -2.356362  -2.069095
    H  -2.404874   0.270444  -2.404308
    H  -2.277282   2.626300  -1.088477
    H  -3.762123   0.970755   0.180203
    H  -3.583416  -1.473871  -0.172826
    C  -1.728139   1.465134   1.254587
    C   0.080450  -0.908796  -1.692170
