8
B2C2H4
    B   0.020626   1.082898  -0.335748
    B  -0.020851  -1.082942  -0.335931
    H  -0.042062  -2.183671  -0.759136
    H   0.041598   2.183685  -0.758815
    H  -1.707940   0.032566   0.908537
    H   1.708007  -0.032827   0.908017
    C  -0.899468   0.017162   0.184465
    C   0.899548  -0.017297   0.183939
