8
B2C2H4
    B   0.020552   1.081202  -0.333661
    B  -0.020860  -1.081262  -0.333810
    H  -0.041836  -2.176880  -0.769935
    H   0.041558   2.176897  -0.769591
    H  -1.705179   0.032524   0.914784
    H   1.705552  -0.032776   0.914027
    C  -0.900049   0.017170   0.186748
    C   0.899721  -0.017302   0.186767
