8
B2C2H4
    B   0.020098   1.052737  -0.275785
    B  -0.020233  -1.052756  -0.275949
    H  -0.040762  -2.111358  -0.794309
    H   0.040171   2.111401  -0.794045
    H  -1.805840   0.034347   0.841672
    H   1.806008  -0.034705   0.841104
    C  -0.924112   0.017681   0.226490
    C   0.924129  -0.017773   0.226150
