8
B2C2H4
    B   0.020608   1.081493  -0.333460
    B  -0.020815  -1.081543  -0.333630
    H  -0.041982  -2.178631  -0.765878
    H   0.041478   2.178649  -0.765550
    H  -1.709307   0.032599   0.910885
    H   1.709335  -0.032854   0.910403
    C  -0.901062   0.017191   0.186580
    C   0.901204  -0.017329   0.185978
