10
B3C2H5
    B  -0.000046   1.025543   0.306472
    B  -0.000014  -0.778212   0.734806
    B   0.000009  -0.247268  -1.041295
    H  -2.203051   0.000199   0.000099
    H   0.000279  -1.636037   1.545143
    H  -0.000395   2.156342   0.643796
    H   2.203016   0.000304   0.000132
    H  -0.000061  -0.520962  -2.189171
    C  -1.123426  -0.000115   0.000046
    C   1.123391   0.000157   0.000005
