10
B3C2H5
    B  -0.000019   1.011052   0.302233
    B   0.000005  -0.767683   0.724116
    B   0.000060  -0.243537  -1.026580
    H  -2.514475   0.001000   0.000455
    H   0.000339  -1.652862   1.559953
    H  -0.000607   2.177836   0.649786
    H   2.514506   0.000860   0.000534
    H  -0.000137  -0.526893  -2.210686
    C  -1.306638  -0.000090   0.000135
    C   1.306668   0.000269   0.000087
