12
B4C2H6
    B   0.255661  -0.487422  -1.082597
    B   1.137422  -0.217266   0.366516
    B  -1.137419   0.217239  -0.366558
    B  -0.255672   0.487555   1.082523
    H   0.605600   1.939426  -0.730484
    H  -2.240097   0.428389  -0.722137
    H   0.504796  -0.959419  -2.132402
    H  -0.504489   0.960257   2.132086
    H   2.240245  -0.427933   0.721929
    H  -0.605595  -1.939488   0.730398
    C   0.306922   0.982559  -0.369882
    C  -0.306879  -0.982542   0.369915
