12
B4C2H6
    B   0.252374  -0.520559  -1.091349
    B   1.140827  -0.218799   0.367283
    B  -1.140866   0.216934  -0.368283
    B  -0.340539  -1.120379   0.392601
    H   0.574767   1.961742  -0.621042
    H  -2.217067   0.601427  -0.642913
    H   0.538649  -0.861782  -2.180948
    H  -0.417980   0.957481   1.863414
    H   2.236101  -0.249234   0.792617
    H  -0.698280  -2.112950   0.914558
    C   0.304210   0.944787  -0.383912
    C  -0.231701   0.402686   0.957284
