12
B4C2H6
    B   0.252352  -0.500758  -1.079816
    B   1.137632  -0.206964   0.370836
    B  -1.136537   0.227317  -0.362245
    B  -0.338353  -1.098565   0.398749
    H   0.583589   1.970851  -0.643507
    H  -2.221056   0.560080  -0.661225
    H   0.526322  -0.884720  -2.155599
    H  -0.426998   0.948869   1.885693
    H   2.235608  -0.291620   0.775278
    H  -0.686772  -2.111901   0.879938
    C   0.303506   0.963659  -0.370510
    C  -0.228797   0.425108   0.961718
