14
B5C2H7
    B   0.719302   1.194256  -0.036180
    B  -0.919219   1.047549  -0.035387
    B  -1.273822  -0.565385  -0.035455
    B   0.152087  -1.385829  -0.036288
    B  -0.056241   0.012378  -1.216516
    H   0.065871  -0.014441  -2.389296
    H   0.069129  -0.015270   2.085764
    H  -2.321367  -1.076953   0.141055
    H  -1.655692   1.951225   0.141206
    H   0.383304  -2.531758   0.117544
    H   2.256340  -0.496036   0.156612
    H   1.409911   2.137467   0.117752
    C  -0.041780   0.009103   1.007728
    C   1.212033  -0.266468  -0.018104
