14
B5C2H7
    B   0.701011   1.194895   0.000072
    B  -1.284337  -0.555926   0.000024
    B   0.141340  -1.392340  -0.000032
    B  -0.016892  -0.028845   1.167893
    B  -0.016902  -0.028757  -1.167809
    H   0.033122   0.056400  -2.341222
    H   0.033026   0.056309   2.341310
    H  -2.403980  -0.925245   0.000005
    H  -1.520430   1.758836   0.000079
    H   0.365210  -2.549870  -0.000089
    H   2.277086  -0.469080   0.000020
    H   1.296793   2.210483   0.000095
    C   1.216696  -0.261500   0.000021
    C  -0.821885   0.934479   0.000068
