14
B5C2H7
    B   0.729569   1.178363  -0.006280
    B  -0.910427   1.042403  -0.009488
    B  -1.263706  -0.564343  -0.009541
    B   0.168117  -1.375682  -0.006412
    B  -0.023598   0.005261  -1.172088
    H   0.019183  -0.004151  -2.351976
    H   0.030465  -0.006580   2.147027
    H  -2.331429  -1.062112   0.065107
    H  -1.671267   1.941797   0.065349
    H   0.336054  -2.542722   0.058891
    H   2.300453  -0.505780   0.076185
    H   1.371840   2.167138   0.059094
    C  -0.017394   0.003683   1.083655
    C   1.261999  -0.277438   0.000909
