14
B5C2H7
    B  -0.914060   1.057852   0.000064
    B  -1.283736  -0.560880   0.000009
    B   0.155189  -1.389416  -0.000019
    B  -0.055312  -0.024215   1.183288
    B  -0.055322  -0.024126  -1.183230
    H   0.127816   0.055899  -2.344320
    H   0.127773   0.055770   2.344389
    H  -2.365168  -1.033425  -0.000011
    H  -1.566923   2.040035   0.000096
    H   0.432238  -2.535783  -0.000055
    H   2.286899  -0.384312   0.000024
    H   1.271753   1.939114   0.000104
    C   1.212623  -0.269557   0.000028
    C   0.626089   1.072883   0.000067
