14
B5C2H7
    B   0.719973   1.196710  -0.039807
    B  -0.916330   1.048898  -0.035589
    B  -1.271774  -0.567876  -0.035652
    B   0.151650  -1.388361  -0.039906
    B  -0.061453   0.013545  -1.218962
    H   0.071130  -0.015554  -2.390522
    H   0.064422  -0.014260   2.086168
    H  -2.328937  -1.058101   0.143914
    H  -1.670398   1.937310   0.144028
    H   0.394393  -2.531169   0.121694
    H   2.255038  -0.495788   0.154439
    H   1.419645   2.132321   0.121873
    C  -0.039205   0.008569   1.009337
    C   1.211704  -0.266404  -0.020580
