14
B5C2H7
    B  -0.914758   1.057771   0.000086
    B  -1.284781  -0.561307   0.000020
    B   0.154670  -1.389859  -0.000043
    B  -0.052340  -0.022945   1.182880
    B  -0.052396  -0.022833  -1.182833
    H   0.122983   0.053721  -2.345008
    H   0.122809   0.053693   2.345083
    H  -2.366004  -1.033893   0.000008
    H  -1.562558   2.043182   0.000156
    H   0.437374  -2.534739  -0.000090
    H   2.286546  -0.380791   0.000011
    H   1.274035   1.936475   0.000092
    C   1.210431  -0.270572   0.000023
    C   0.623846   1.071936   0.000050
