16
B6C2H8
    B   1.315985  -0.659299  -0.463052
    B  -0.315341  -1.048570  -0.739137
    B   1.316009   0.659294   0.463018
    B  -0.315342   1.048958   0.738506
    B   0.282137  -0.723766   1.028038
    B   0.282152   0.723787  -1.027866
    H  -2.085398  -0.782310   1.113138
    H  -2.085299   0.782310  -1.112876
    H  -0.671941   1.970299   1.386716
    H  -0.671885  -1.969734  -1.387630
    H   0.509236  -1.392017   1.977745
    H   0.509027   1.392052  -1.977608
    H   2.206270   1.296685   0.910955
    H   2.206198  -1.296804  -0.910926
    C  -1.240741  -0.411182   0.584973
    C  -1.240917   0.410839  -0.584542
