16
B6C2H8
    B   1.324654  -0.659051  -0.463528
    B  -0.305722  -1.052275  -0.741327
    B   1.324674   0.659065   0.463468
    B  -0.305716   1.052634   0.740765
    B   0.289368  -0.725286   1.030436
    B   0.289411   0.725302  -1.030301
    H  -2.079508  -0.774038   1.100707
    H  -2.079473   0.774032  -1.100492
    H  -0.708803   1.957516   1.377170
    H  -0.708778  -1.957043  -1.377913
    H   0.478402  -1.395264   1.982743
    H   0.478183   1.395293  -1.982649
    H   2.204610   1.301842   0.915659
    H   2.204559  -1.301953  -0.915602
    C  -1.202794  -0.411076   0.584449
    C  -1.202918   0.410844  -0.584137
