16
B6C2H8
    B   1.333299  -0.660784  -0.465150
    B  -0.290254  -1.070730  -0.753703
    B   1.333313   0.660833   0.465054
    B  -0.290236   1.070968   0.753388
    B   0.312244  -0.734980   1.044515
    B   0.312294   0.735010  -1.044505
    H  -2.082502  -0.741296   1.053387
    H  -2.082559   0.741281  -1.053311
    H  -0.796170   1.942839   1.366790
    H  -0.796218  -1.942588  -1.367100
    H   0.462888  -1.409526   2.003209
    H   0.462713   1.409570  -2.003227
    H   2.224310   1.295953   0.912135
    H   2.224295  -1.296015  -0.912076
    C  -1.163614  -0.415700   0.590755
    C  -1.163654   0.415708  -0.590712
