16
B6C2H8
    B   1.332313  -0.660583  -0.465107
    B  -0.312330  -1.042609  -0.734496
    B   1.332346   0.660519   0.465151
    B  -0.312349   1.043021   0.733769
    B   0.312475  -0.734083   1.042656
    B   0.312366   0.734101  -1.042421
    H  -2.258038  -0.912973   1.298190
    H  -2.257829   0.913044  -1.297898
    H  -0.615826   2.004739   1.409489
    H  -0.615721  -2.004000  -1.410729
    H   0.615299  -1.410267   2.004339
    H   0.614956   1.410287  -2.004102
    H   2.258724   1.297052   0.912637
    H   2.258621  -1.297203  -0.912613
    C  -1.332299  -0.465350   0.660784
    C  -1.332560   0.464847  -0.660199
