18
B7C2H9
    B   0.957519   0.438136   0.927953
    B  -0.067068  -0.907664   1.368693
    B  -0.005016  -0.085865  -1.525261
    B   0.997783  -1.150238   0.101288
    B   0.098308   1.336353  -0.415904
    B  -1.155287  -0.991629   0.100619
    B  -0.883446   0.573765   0.927591
    H   1.725792  -2.071159  -0.031455
    H   2.224307   0.435096  -1.143430
    H   1.763928   0.948266   1.623606
    H  -0.108859  -1.471969   2.406455
    H  -0.018622  -0.281767  -2.688197
    H  -2.010095  -1.796107  -0.032779
    H  -1.606560   1.196406   1.623213
    H  -2.137210   0.756799  -1.143012
    H   0.181758   2.467488  -0.731232
    C  -1.233427   0.394152  -0.682629
    C   1.277336   0.208764  -0.682661
