18
B7C2H9
    B  -0.111977  -1.146642   0.882316
    B  -0.113201  -1.150679  -0.881930
    B   1.325435  -0.886554  -0.002352
    B   0.129106   1.588712  -0.002386
    B  -1.496503  -0.723109  -0.001318
    B  -0.969031   0.625138   0.882256
    B  -0.972974   0.626365  -0.881942
    H   2.364985  -1.434597  -0.001172
    H   1.707555   0.824947  -1.467746
    H   1.698227   0.820299   1.474676
    H  -0.065681  -1.916277   1.773417
    H  -0.068381  -1.921463  -1.772112
    H  -2.556270  -1.236278  -0.000583
    H  -1.542800   1.139493   1.773734
    H  -1.547928   1.140984  -1.772512
    H   0.346625   2.743594  -0.001566
    C   0.934039   0.451021   0.799976
    C   0.939916   0.453874  -0.797898
