18
B7C2H9
    B   1.027100   0.496117   0.901294
    B   1.031822   0.498373  -0.898746
    B  -0.084652  -1.150310   0.892167
    B  -0.084566  -1.154426  -0.890716
    B  -1.471126  -0.710924  -0.002155
    B  -0.953966   0.648507   0.892193
    B  -0.957109   0.651038  -0.890818
    H   2.117458  -1.410092  -0.001030
    H   1.789298   0.864489  -1.722655
    H   1.783786   0.861871   1.726049
    H  -0.030748  -1.982246   1.727436
    H  -0.030647  -1.987111  -1.725265
    H  -2.533519  -1.224446  -0.002824
    H  -1.572195   1.207692   1.727524
    H  -1.575857   1.210710  -1.725466
    H   0.211364   2.534963  -0.001113
    C   0.117489   1.460133  -0.001528
    C   1.217208  -0.815509  -0.001490
