18
B7C2H9
    B   1.018080   0.515588   0.889056
    B   1.040675   0.478932  -0.887774
    B  -0.062840  -1.125013  -0.902910
    B   1.338404  -0.921034   0.017151
    B   0.109706   1.619703  -0.019859
    B  -1.440662  -0.695695  -0.002101
    B  -0.919117   0.647537   0.904665
    H   2.287051  -1.618487   0.063302
    H   1.750822   0.823937  -1.765561
    H   1.728234   0.856741   1.768358
    H  -0.177250  -1.836356   1.531275
    H  -0.165442  -1.947740  -1.739631
    H  -2.499718  -1.208066  -0.002373
    H  -1.625766   1.077458   1.743193
    H  -1.552177   1.005564  -1.530295
    H   0.153636   2.796444  -0.064418
    C  -0.896964   0.601652  -0.796621
    C  -0.085531  -1.072336   0.797403
