18
B7C2H9
    B   1.051067   0.549714   0.880991
    B   1.089561   0.483696  -0.879023
    B  -0.044571  -1.087756  -0.919235
    B   1.346305  -0.918428   0.028399
    B   0.116505   1.624708  -0.032019
    B  -1.435314  -0.693273  -0.001557
    B  -0.878943   0.639874   0.919890
    H   2.239958  -1.681732   0.110411
    H   1.741085   0.839047  -1.796598
    H   1.732444   0.837873   1.800497
    H  -0.172748  -1.837714   1.520905
    H  -0.208219  -1.928423  -1.728611
    H  -2.493589  -1.205209  -0.001155
    H  -1.638205   1.033562   1.730376
    H  -1.551890   1.007943  -1.519119
    H   0.075293   2.799370  -0.112283
    C  -0.884863   0.594469  -0.773241
    C  -0.082737  -1.058893   0.774229
