18
B7C2H9
    B   0.951767   0.440371   0.957492
    B  -0.092335  -1.072174   0.917803
    B  -0.168249  -1.323830  -0.850504
    B   0.133475   1.615932  -0.066796
    B  -1.484651  -0.746858  -0.047655
    B  -0.885512   0.608447   0.912733
    B  -1.018953   0.620885  -0.887600
    H   2.112414  -1.309765  -0.178084
    H   1.858329   0.884729  -1.418227
    H   1.803082   0.681676   1.734705
    H   0.065685  -1.893505   1.751356
    H  -0.101102  -2.136493  -1.703733
    H  -2.570457  -1.211005  -0.042698
    H  -1.549072   1.096588   1.760164
    H  -1.556000   1.151307  -1.795588
    H   0.265961   2.784151  -0.148009
    C   1.168340  -0.783868  -0.156015
    C   1.068421   0.592240  -0.736486
