18
B7C2H9
    B   1.025508   0.502398   0.895791
    B   1.034963   0.493029  -0.894313
    B  -0.081427  -1.141347  -0.904854
    B   1.346214  -0.920614  -0.003429
    B   0.114807   1.625335   0.000763
    B  -1.466337  -0.708670  -0.002056
    B  -0.943483   0.643405   0.906448
    H   2.323760  -1.601744   0.010256
    H   1.781850   0.850828  -1.754828
    H   1.768725   0.864578   1.757690
    H  -0.162628  -1.892143   1.667533
    H  -0.153874  -1.977224  -1.754078
    H  -2.537960  -1.227535  -0.002294
    H  -1.641367   1.105135   1.757677
    H  -1.586701   1.052688  -1.666536
    H   0.189844   2.814549  -0.011516
    C  -0.922593   0.619040  -0.849946
    C  -0.088158  -1.102880   0.850550
