18
B7C2H9
    B   0.910308   0.493255   0.986882
    B  -0.077027  -1.044064   0.934942
    B  -0.045095  -0.616188  -1.065830
    B   1.386941  -0.956296   0.056404
    B   0.099774   1.352985  -0.453877
    B  -1.512020  -0.742867   0.055852
    B  -0.828487   0.621236   0.986440
    H   2.203973  -1.806064  -0.015491
    H   2.151644   0.695483  -1.305361
    H   1.615897   0.994425   1.794038
    H  -0.143843  -1.949191   1.700679
    H  -0.088748  -1.214532  -2.087778
    H  -2.444662  -1.463831  -0.016271
    H  -1.453565   1.220361   1.793207
    H  -2.025728   1.002975  -1.306472
    H   0.185129   2.512674  -0.688337
    C  -1.276558   0.545593  -0.683439
    C   1.343210   0.352876  -0.682730
