18
B7C2H9
    B   1.034092   0.492043   0.896410
    B  -0.077978  -1.141461   0.891527
    B  -0.074764  -1.138722  -0.895831
    B   0.127926   1.626547  -0.004344
    B  -1.465062  -0.716808  -0.005310
    B  -0.938317   0.645615   0.894362
    B  -0.941468   0.642206  -0.898068
    H   2.262680  -1.518797  -0.012768
    H   1.717823   0.813012  -1.678194
    H   1.803187   0.847427   1.737006
    H  -0.119851  -1.979233   1.740971
    H  -0.115594  -1.964534  -1.756865
    H  -2.533604  -1.244005  -0.010010
    H  -1.621122   1.121254   1.751128
    H  -1.613129   1.110711  -1.767677
    H   0.237177   2.812566  -0.016715
    C   1.320273  -0.893256  -0.000175
    C   0.998873   0.484265  -0.862588
