18
B7C2H9
    B  -0.099905  -1.137617   0.884303
    B  -0.100671  -1.141371  -0.883884
    B   1.336246  -0.890534  -0.001846
    B   0.132578   1.599462  -0.001914
    B  -1.486248  -0.718230  -0.001558
    B  -0.954567   0.629071   0.884461
    B  -0.957984   0.630446  -0.883996
    H   2.352165  -1.484296  -0.000868
    H   1.707342   0.824900  -1.497677
    H   1.700170   0.821288   1.503037
    H  -0.092504  -1.929880   1.758154
    H  -0.094495  -1.934729  -1.756750
    H  -2.547252  -1.232036  -0.001163
    H  -1.570098   1.126892   1.758868
    H  -1.574309   1.128998  -1.757446
    H   0.299820   2.764266  -0.001466
    C   0.972939   0.469901   0.815163
    C   0.977914   0.472299  -0.812562
