18
B7C2H9
    B   1.026938   0.499776   0.892944
    B   1.020976   0.515572  -0.883948
    B  -0.082033  -1.111465   0.916039
    B   1.332233  -0.907205  -0.007127
    B  -1.450520  -0.702393  -0.007870
    B  -0.943177   0.644899   0.892658
    B  -0.934142   0.659515  -0.884545
    H   2.277756  -1.604207  -0.072216
    H   1.703942   0.876021  -1.772417
    H   1.766229   0.896969   1.720009
    H  -0.146631  -1.987218   1.701213
    H  -0.131390  -1.788750  -1.564139
    H  -2.487765  -1.253617  -0.073779
    H  -1.616307   1.146023   1.719770
    H  -1.556152   1.116396  -1.773443
    H   0.188402   2.557238  -0.016149
    C   0.108857   1.479440  -0.000517
    C  -0.076072  -1.038164  -0.783624
