18
B7C2H9
    B   0.960113   0.496112   0.938977
    B  -0.073171  -0.991768   1.101249
    B  -0.019546  -0.271756  -1.326729
    B   1.266450  -1.038441   0.068775
    B   0.095529   1.295672  -0.482946
    B  -1.404476  -0.841873   0.067914
    B  -0.877764   0.631510   0.938882
    H   1.947192  -1.994809   0.066427
    H   2.174034   0.697090  -1.204490
    H   1.655309   0.929667   1.778561
    H  -0.130320  -1.765543   1.997909
    H  -0.055686  -0.761787  -2.393864
    H  -2.217924  -1.688266   0.064777
    H  -1.502069   1.162201   1.778339
    H  -2.047871   1.008139  -1.205331
    H   0.176087   2.385798  -0.903766
    C  -1.288117   0.470389  -0.641114
    C   1.343371   0.276495  -0.640710
