18
B7C2H9
    B  -0.082183  -1.138423   0.890536
    B  -0.082346  -1.142007  -0.889852
    B   1.352189  -0.903416  -0.001387
    B   0.132177   1.619502  -0.001532
    B  -1.472450  -0.711693  -0.001845
    B  -0.944173   0.643563   0.891107
    B  -0.946980   0.645308  -0.890160
    H   2.353302  -1.545814  -0.000332
    H   1.729281   0.835625  -1.660707
    H   1.723172   0.832682   1.664401
    H  -0.120257  -1.962066   1.752354
    H  -0.121285  -1.966795  -1.750562
    H  -2.544206  -1.230714  -0.001835
    H  -1.612286   1.125124   1.753702
    H  -1.615517   1.128364  -1.751677
    H   0.252329   2.803027  -0.001207
    C   0.997945   0.482258   0.869689
    C   1.002430   0.484305  -0.867837
