18
B7C2H9
    B   1.053908   0.555850   0.879824
    B   1.097280   0.481604  -0.877008
    B  -0.045351  -1.078013  -0.923174
    B   1.342809  -0.916983   0.033039
    B   0.115593   1.620165  -0.037436
    B  -1.440795  -0.695971  -0.001717
    B  -0.872861   0.632956   0.923126
    H   2.231557  -1.686860   0.106962
    H   1.761654   0.831979  -1.787164
    H   1.739265   0.858507   1.791564
    H  -0.174925  -1.841523   1.518274
    H  -0.204026  -1.921492  -1.730577
    H  -2.498478  -1.208706  -0.001255
    H  -1.630371   1.032701   1.732252
    H  -1.557964   1.009997  -1.515450
    H   0.066978   2.795114  -0.109869
    C  -0.892385   0.589738  -0.772369
    C  -0.090747  -1.060235   0.773839
