18
B7C2H9
    B   0.948969   0.441734   0.959483
    B  -0.093742  -1.072010   0.917693
    B  -0.164553  -1.319470  -0.855439
    B   0.134094   1.611192  -0.078560
    B  -1.486815  -0.745335  -0.047911
    B  -0.884656   0.609138   0.911505
    B  -1.039821   0.627091  -0.883781
    H   2.113668  -1.316714  -0.173410
    H   1.873188   0.881782  -1.411521
    H   1.798915   0.684924   1.737764
    H   0.064432  -1.894480   1.750454
    H  -0.095038  -2.128547  -1.712003
    H  -2.567365  -1.222467  -0.037609
    H  -1.544185   1.102434   1.759385
    H  -1.577890   1.158495  -1.790612
    H   0.271009   2.779674  -0.153720
    C   1.173158  -0.786738  -0.151943
    C   1.077775   0.588127  -0.736917
