18
B7C2H9
    B   1.019161   0.492214   0.899265
    B   1.023121   0.494138  -0.896979
    B  -0.072713  -1.142188   0.892827
    B  -0.072458  -1.145731  -0.891535
    B  -1.465269  -0.708099  -0.001993
    B  -0.940469   0.652954   0.892871
    B  -0.943060   0.655076  -0.891663
    H   2.129324  -1.401453  -0.000763
    H   1.777644   0.858895  -1.723855
    H   1.773013   0.856522   1.726917
    H  -0.053591  -1.971151   1.731971
    H  -0.053586  -1.975456  -1.729953
    H  -2.526669  -1.221536  -0.002716
    H  -1.577667   1.183003   1.732338
    H  -1.580492   1.185891  -1.730504
    H   0.225453   2.538783  -0.000942
    C   0.118209   1.464464  -0.001201
    C   1.221191  -0.817497  -0.001228
