18
B7C2H9
    B   0.901282   0.473368   0.988500
    B  -0.078521  -1.064564   0.930653
    B  -0.055425  -0.756399  -1.011346
    B   1.402366  -0.943256   0.044950
    B   0.101638   1.377437  -0.395927
    B  -1.525464  -0.727663   0.044357
    B  -0.822278   0.600198   0.987764
    H   2.281099  -1.723734  -0.070182
    H   2.105056   0.712750  -1.332908
    H   1.627315   1.001869   1.759794
    H  -0.144532  -1.958307   1.706690
    H  -0.096544  -1.321808  -2.050228
    H  -2.508977  -1.371063  -0.070879
    H  -1.463739   1.229410   1.758493
    H  -1.977337   1.013089  -1.333740
    H   0.186854   2.537172  -0.622843
    C  -1.256319   0.555153  -0.665476
    C   1.324669   0.365180  -0.664812
