18
B7C2H9
    B   0.986435   0.470986   0.951095
    B  -0.112953  -1.142494   0.907008
    B  -0.158026  -1.250697  -0.873195
    B   0.120618   1.615788  -0.012884
    B  -1.479831  -0.735084  -0.016728
    B  -0.926754   0.632097   0.899699
    B  -0.960869   0.607014  -0.895896
    H   2.111776  -1.329984  -0.114952
    H   1.731077   0.802476  -1.492949
    H   1.880065   0.746342   1.668238
    H   0.060479  -1.952325   1.748504
    H  -0.005581  -2.022797  -1.752359
    H  -2.571707  -1.185143  -0.015565
    H  -1.619602   1.099335   1.735572
    H  -1.516512   1.137217  -1.792910
    H   0.299258   2.776478  -0.114638
    C   1.176830  -0.800393  -0.064041
    C   0.986438   0.530014  -0.761142
