18
B7C2H9
    B   0.946675   0.465565   0.967794
    B  -0.081662  -1.107951   0.916771
    B  -0.070300  -0.958749  -0.940159
    B   1.391395  -0.922476   0.024592
    B   0.108151   1.465991  -0.233487
    B  -1.511512  -0.708693   0.023978
    B  -0.868353   0.599231   0.966884
    H   2.346110  -1.592052  -0.116280
    H   1.909047   0.729885  -1.426577
    H   1.706608   0.979468   1.703669
    H  -0.145631  -1.973688   1.713735
    H  -0.111284  -1.519686  -1.972840
    H  -2.553884  -1.231355  -0.117086
    H  -1.545439   1.219016   1.702131
    H  -1.781019   1.001233  -1.427276
    H   0.192660   2.615929  -0.456091
    C  -1.137577   0.554923  -0.663709
    C   1.207157   0.382239  -0.663189
