18
B7C2H9
    B   1.032795   0.502888   0.898010
    B   1.026815   0.524255  -0.879309
    B  -0.081299  -1.102540   0.922954
    B   1.333898  -0.907738  -0.008908
    B  -1.452281  -0.702551  -0.009531
    B  -0.948491   0.648806   0.897539
    B  -0.938524   0.668881  -0.879762
    H   2.266352  -1.621604  -0.090932
    H   1.692218   0.884285  -1.781966
    H   1.766404   0.916282   1.723172
    H  -0.147561  -2.000441   1.683599
    H  -0.132783  -1.808523  -1.541205
    H  -2.479129  -1.272266  -0.092191
    H  -1.613860   1.165168   1.722522
    H  -1.543344   1.122563  -1.782826
    H   0.187934   2.551365  -0.008982
    C   0.108581   1.474759   0.004197
    C  -0.076582  -1.044757  -0.773523
