18
B7C2H9
    B   0.977754   0.459122   0.949859
    B  -0.098861  -1.113925   0.908945
    B  -0.156543  -1.272635  -0.868666
    B   0.126353   1.621329  -0.029202
    B  -1.486557  -0.740359  -0.022446
    B  -0.910371   0.625576   0.904897
    B  -0.974991   0.608488  -0.899555
    H   2.120155  -1.325617  -0.150291
    H   1.781269   0.841276  -1.467824
    H   1.840750   0.725356   1.706465
    H   0.046324  -1.935951   1.744577
    H  -0.055849  -2.069746  -1.733105
    H  -2.574451  -1.198100  -0.013183
    H  -1.586214   1.105126   1.747866
    H  -1.526766   1.123111  -1.808249
    H   0.282200   2.786179  -0.113888
    C   1.180937  -0.797707  -0.097242
    C   1.016003   0.557307  -0.756099
