18
B7C2H9
    B   1.005776   0.488994   0.920704
    B  -0.083087  -1.126768   0.893995
    B  -0.078261  -1.068379  -0.910335
    B   1.358483  -0.903957   0.000997
    B   0.115163   1.564557  -0.078194
    B  -1.475972  -0.695275   0.000294
    B  -0.923835   0.631112   0.920462
    H   2.342672  -1.540052  -0.082614
    H   1.687042   0.747635  -1.550534
    H   1.772874   0.921318   1.700028
    H  -0.145215  -1.968018   1.716565
    H  -0.128261  -1.745427  -1.870831
    H  -2.542579  -1.180514  -0.084184
    H  -1.619419   1.171040   1.699776
    H  -1.558349   0.986637  -1.551480
    H   0.200999   2.727543  -0.213337
    C  -0.967977   0.568113  -0.754472
    C   1.041088   0.420269  -0.753981
