18
B7C2H9
    B   0.970599   0.435356   0.936580
    B  -0.066248  -0.896756   1.369415
    B  -0.006663  -0.097449  -1.521860
    B   0.998693  -1.143660   0.098209
    B   0.098717   1.339013  -0.432836
    B  -1.155313  -0.985070   0.097721
    B  -0.896672   0.572819   0.936187
    H   1.722015  -2.065933  -0.043384
    H   2.229915   0.449174  -1.133339
    H   1.777773   0.955732   1.622412
    H  -0.111334  -1.506940   2.379216
    H  -0.024768  -0.346900  -2.673258
    H  -2.005804  -1.791501  -0.044280
    H  -1.619255   1.205807   1.621673
    H  -2.139569   0.770884  -1.134152
    H   0.182412   2.475449  -0.728681
    C  -1.233687   0.406956  -0.673617
    C   1.280331   0.221848  -0.673150
