18
B7C2H9
    B   0.972313   0.434209   0.936756
    B  -0.066090  -0.894619   1.371120
    B  -0.006965  -0.100556  -1.518927
    B   0.995134  -1.143244   0.096035
    B   0.098775   1.339697  -0.434960
    B  -1.151721  -0.985194   0.095542
    B  -0.898524   0.571919   0.936369
    H   1.717728  -2.066094  -0.045637
    H   2.230327   0.451253  -1.131768
    H   1.778825   0.955242   1.622975
    H  -0.111433  -1.508033   2.379027
    H  -0.025132  -0.350182  -2.670346
    H  -2.001585  -1.792303  -0.046476
    H  -1.620364   1.205477   1.622216
    H  -2.139573   0.772956  -1.132701
    H   0.182429   2.475676  -0.732306
    C  -1.233616   0.408864  -0.672283
    C   1.280613   0.223761  -0.671778
