18
B7C2H9
    B   0.897853   0.394718   0.970884
    B  -0.065034  -0.987321   0.922503
    B  -0.203000  -1.444150  -0.811044
    B   0.155934   1.623281  -0.097289
    B  -1.487225  -0.763990  -0.085167
    B  -0.826693   0.576090   0.916078
    B  -1.006870   0.614130  -0.914851
    H   2.082419  -1.273447  -0.293822
    H   1.971502   1.022073  -1.321391
    H   1.714550   0.559409   1.802920
    H   0.128986  -1.785326   1.773343
    H  -0.179512  -2.327938  -1.595128
    H  -2.603393  -1.147948  -0.062193
    H  -1.504560   1.041700   1.765795
    H  -1.566077   1.173962  -1.792299
    H   0.205496   2.797820  -0.176023
    C   1.137187  -0.748740  -0.296021
    C   1.149579   0.674506  -0.703438
