18
B7C2H9
    B   1.027241   0.496231   0.901224
    B   1.032239   0.498610  -0.898598
    B  -0.084842  -1.149434   0.892230
    B  -0.084809  -1.153790  -0.890705
    B  -1.471447  -0.711076  -0.002251
    B  -0.953324   0.647774   0.892245
    B  -0.956688   0.650430  -0.890787
    H   2.116525  -1.411321  -0.001135
    H   1.789204   0.864454  -1.723058
    H   1.783348   0.861690   1.726601
    H  -0.030702  -1.980743   1.728104
    H  -0.030663  -1.985908  -1.725800
    H  -2.533822  -1.224534  -0.002925
    H  -1.570925   1.206779   1.728162
    H  -1.574879   1.209936  -1.725962
    H   0.209762   2.534958  -0.001220
    C   0.117784   1.459883  -0.001656
    C   1.217141  -0.815109  -0.001613
