18
B7C2H9
    B   1.000948   0.471003   0.913424
    B   1.079944   0.549787  -0.870830
    B  -0.076919  -1.042705   0.944215
    B   1.334150  -0.907597  -0.057135
    B  -1.452011  -0.702174  -0.058872
    B  -0.921501   0.612587   0.913508
    B  -0.988366   0.704128  -0.870519
    H   2.244978  -1.651879  -0.121319
    H   1.727989   0.939980  -1.775186
    H   1.691760   0.927945   1.752844
    H  -0.144518  -1.955816   1.687413
    H  -0.138750  -1.904510  -1.487043
    H  -2.461742  -1.305468  -0.123846
    H  -1.538902   1.164971   1.752699
    H  -1.572024   1.185154  -1.774938
    H   0.188428   2.548365  -0.024313
    C   0.108649   1.475415  -0.040519
    C  -0.080971  -1.110358  -0.756726
