18
B7C2H9
    B   0.975057   0.433331   0.936861
    B  -0.065971  -0.892970   1.371883
    B  -0.007455  -0.106603  -1.513941
    B   0.990818  -1.140750   0.091799
    B   0.098731   1.339073  -0.437918
    B  -1.147074  -0.983382   0.091311
    B  -0.901361   0.571449   0.936464
    H   1.711824  -2.064954  -0.049300
    H   2.230577   0.453367  -1.131620
    H   1.781133   0.951375   1.625674
    H  -0.111246  -1.504911   2.380402
    H  -0.025637  -0.357021  -2.665078
    H  -1.995575  -1.792063  -0.050090
    H  -1.623184   1.201980   1.624935
    H  -2.139526   0.775052  -1.132583
    H   0.182444   2.475266  -0.734860
    C  -1.233540   0.412848  -0.670815
    C   1.281127   0.227745  -0.670265
