18
B7C2H9
    B   0.978921   0.476274   0.945304
    B  -0.082670  -1.121521   0.904625
    B  -0.074906  -1.021981  -0.921626
    B   1.374872  -0.913086   0.013101
    B   0.111854   1.517491  -0.153443
    B  -1.493671  -0.701867   0.012466
    B  -0.898878   0.614602   0.944617
    H   2.347922  -1.556859  -0.107438
    H   1.791634   0.734741  -1.480059
    H   1.746775   0.954673   1.693420
    H  -0.145704  -1.974705   1.712763
    H  -0.119268  -1.626041  -1.927596
    H  -2.550378  -1.196345  -0.108531
    H  -1.588796   1.200359   1.692333
    H  -1.663986   0.988973  -1.480827
    H   0.196762   2.670713  -0.345625
    C  -1.054583   0.556969  -0.695531
    C   1.125242   0.396441  -0.695095
