18
B7C2H9
    B   1.027206   0.500310   0.898647
    B  -0.083783  -1.135232   0.889625
    B  -0.082452  -1.124693  -0.903128
    B   1.353962  -0.911103  -0.006088
    B   0.119003   1.618842  -0.014052
    B  -1.472413  -0.703141  -0.006850
    B  -0.943742   0.645322   0.899069
    H   2.344605  -1.571501  -0.027110
    H   1.713135   0.817116  -1.683334
    H   1.784715   0.879421   1.739212
    H  -0.145486  -1.971602   1.738549
    H  -0.142006  -1.927063  -1.784500
    H  -2.549043  -1.211489  -0.029186
    H  -1.637145   1.130983   1.740018
    H  -1.573387   1.059495  -1.684719
    H   0.206790   2.805332  -0.048219
    C  -0.933022   0.620441  -0.857901
    C   1.014205   0.477391  -0.857174
