18
B7C2H9
    B   1.011234   0.483493   0.929508
    B  -0.107175  -1.164292   0.895509
    B  -0.124747  -1.173690  -0.883902
    B   0.117840   1.617985  -0.000263
    B  -1.486008  -0.732338   0.010186
    B  -0.945938   0.648250   0.901179
    B  -0.960910   0.609228  -0.886265
    H   2.131044  -1.332344  -0.088160
    H   1.681129   0.734487  -1.526179
    H   1.881771   0.799646   1.657660
    H  -0.001829  -2.007058   1.714930
    H  -0.003941  -1.926774  -1.783105
    H  -2.546738  -1.248183   0.006701
    H  -1.610992   1.144753   1.742502
    H  -1.494738   1.089996  -1.823368
    H   0.332191   2.773245  -0.084425
    C   1.189209  -0.809686  -0.005128
    C   0.939738   0.492111  -0.774522
