18
B7C2H9
    B   0.970013   0.459714   0.960154
    B  -0.110534  -1.121363   0.912508
    B  -0.174268  -1.294770  -0.863677
    B   0.124862   1.615661  -0.024004
    B  -1.479009  -0.738518  -0.031857
    B  -0.911343   0.621462   0.900511
    B  -0.962427   0.605642  -0.901695
    H   2.104066  -1.327304  -0.139817
    H   1.768772   0.849205  -1.467251
    H   1.864909   0.710973   1.684486
    H   0.089057  -1.915905   1.763121
    H  -0.023486  -2.083925  -1.728462
    H  -2.583632  -1.157183  -0.027436
    H  -1.613854   1.076394   1.735108
    H  -1.526895   1.155899  -1.781033
    H   0.277644   2.779669  -0.130617
    C   1.170306  -0.793602  -0.105074
    C   1.016962   0.556781  -0.752108
