18
B7C2H9
    B   0.968694   0.485056   0.926472
    B  -0.072481  -0.982311   1.156526
    B  -0.019007  -0.263105  -1.401673
    B   1.222840  -1.065289   0.068236
    B   0.097409   1.320801  -0.445699
    B  -1.365227  -0.874833   0.067375
    B  -0.887863   0.621832   0.926335
    H   1.908189  -2.019798   0.071225
    H   2.161732   0.696799  -1.207480
    H   1.677286   0.910775   1.760472
    H  -0.125349  -1.697757   2.099850
    H  -0.052176  -0.711118  -2.486761
    H  -2.182976  -1.718706   0.069539
    H  -1.526540   1.146766   1.760203
    H  -2.035697   1.005858  -1.208425
    H   0.177743   2.407816  -0.873925
    C  -1.275199   0.463981  -0.639927
    C   1.329765   0.272063  -0.639485
