18
B7C2H9
    B  -0.125302  -1.160186   0.884842
    B  -0.126898  -1.164897  -0.884135
    B   1.321504  -0.902565  -0.002930
    B   0.114226   1.595780  -0.002978
    B  -1.506110  -0.727734  -0.001309
    B  -0.987535   0.622978   0.884684
    B  -0.992230   0.624461  -0.884108
    H   2.384148  -1.409319  -0.001410
    H   1.705586   0.823875  -1.447656
    H   1.695054   0.818827   1.455629
    H  -0.042816  -1.904486   1.797775
    H  -0.045655  -1.910101  -1.796435
    H  -2.568468  -1.241986  -0.000708
    H  -1.519069   1.150153   1.797792
    H  -1.525040   1.151481  -1.796558
    H   0.378027   2.743149  -0.001597
    C   0.917701   0.443190   0.800765
    C   0.924019   0.446210  -0.798804
