20
B8C2H10
    B   0.922517   0.920007  -0.750356
    B  -0.918605   0.922635  -0.751146
    B   0.922517  -0.920007  -0.750356
    B  -0.918605  -0.922635  -0.751146
    B  -0.001011   1.298388   0.762322
    B  -0.001011  -1.298388   0.762322
    B  -1.297224   0.000000   0.762732
    B   0.002773   0.000000  -1.846381
    H   0.010172   0.000000  -3.034803
    H  -1.710963  -1.723055  -1.145712
    H  -1.710963   1.723055  -1.145712
    H  -2.413160   0.000000   1.180105
    H   0.012998  -2.415775   1.175291
    H   2.336236   0.000000   1.139286
    H   1.726000  -1.712117  -1.137031
    H   1.726000   1.712117  -1.137031
    H   0.012998   2.415775   1.175291
    H   0.021099   0.000000   2.933691
    C   0.003162   0.000000   1.808118
    C   1.275068   0.000000   0.750026
