20
B8C2H10
    B   0.005400   0.005694   1.832634
    B  -0.956625   0.891747  -0.751519
    B   0.888795  -0.951615  -0.728938
    B  -0.933949  -0.933587  -0.774414
    B  -0.044418   1.301368   0.728887
    B  -0.045877  -1.307000   0.751470
    B  -1.320551  -0.000255   0.774365
    B   0.007847  -0.000206  -1.832688
    H   0.172784   0.094513  -2.993760
    H  -1.706041  -1.725658  -1.188630
    H  -1.594864   1.786659  -1.181399
    H  -2.426579   0.013871   1.188585
    H   0.135620  -2.391100   1.181351
    H   2.187259   0.009967   0.991599
    H   1.807389  -1.590344  -1.100407
    H   1.553668   1.539574  -0.991645
    H   0.153477   2.402560   1.100363
    H   0.189008   0.055351   2.993706
    C   1.145375  -0.039064   0.707766
    C   0.782281   0.837525  -0.707818
