20
B8C2H10
    B   0.927638   0.927638  -0.755160
    B  -0.927638   0.927638  -0.755160
    B   0.927638  -0.927638  -0.755160
    B  -0.927638  -0.927638  -0.755160
    B   0.000000   1.311587   0.755121
    B   0.000000  -1.311587   0.755121
    B   1.311587   0.000000   0.755121
    B  -1.311587   0.000000   0.755121
    H   0.000000   0.000000  -2.748832
    H  -1.686726  -1.686726  -1.245550
    H  -1.686726   1.686726  -1.245550
    H  -2.385180   0.000000   1.245363
    H   0.000000  -2.385180   1.245363
    H   2.385180   0.000000   1.245363
    H   1.686726  -1.686726  -1.245550
    H   1.686726   1.686726  -1.245550
    H   0.000000   2.385180   1.245363
    H   0.000000   0.000000   2.748992
    C   0.000000   0.000000   1.670826
    C   0.000000   0.000000  -1.670576
