20
B8C2H10
    B   0.921648   0.916352  -0.734430
    B  -0.918489   0.924618  -0.740509
    B   0.921648  -0.916352  -0.734430
    B  -0.918489  -0.924618  -0.740509
    B  -0.010630   1.294597   0.758850
    B  -0.010630  -1.294597   0.758850
    B  -1.295221   0.000000   0.761857
    B   0.003967   0.000000  -1.832939
    H   0.028727   0.000000  -3.010302
    H  -1.697021  -1.727555  -1.124817
    H  -1.697021   1.727555  -1.124817
    H  -2.382459   0.000000   1.217518
    H   0.038917  -2.386277   1.199898
    H   2.196669   0.000000   1.114675
    H   1.739643  -1.692970  -1.085275
    H   1.739643   1.692970  -1.085275
    H   0.038917   2.386277   1.199898
    H   0.075822   0.000000   2.766179
    C   0.011061   0.000000   1.711738
    C   1.213295   0.000000   0.723347
