20
B8C2H10
    B  -0.013121   0.006039   1.833357
    B   0.935180   0.885434  -0.738646
    B   0.917419  -0.941025  -0.761545
    B  -0.898995  -0.946204  -0.751789
    B  -0.035177   1.287374   0.738595
    B  -0.033380  -1.304759   0.751739
    B  -1.314123  -0.016692   0.761495
    B   0.013548  -0.005008  -1.833416
    H  -0.071800   0.120116  -2.999779
    H  -1.772069  -1.606352  -1.191312
    H  -1.527502   1.540513  -1.074898
    H  -2.447788   0.044811   1.080613
    H   0.117178  -2.388908   1.191268
    H   2.169424   0.009202   1.074854
    H   1.762532  -1.699162  -1.080652
    H   1.661921   1.749998  -1.073299
    H   0.062275   2.412594   1.073256
    H   0.135707   0.034166   2.999720
    C   1.156048   0.000244   0.697610
    C  -0.817276   0.817619  -0.697663
