20
B8C2H10
    B  -0.003929   0.005048   1.828685
    B   0.922623   0.891443  -0.733441
    B   0.910932  -0.930165  -0.751188
    B  -0.901488  -0.941422  -0.751137
    B  -0.022042   1.282717   0.733392
    B  -0.028229  -1.303093   0.751099
    B  -1.301853  -0.013599   0.751136
    B   0.006330   0.000795  -1.828684
    H  -0.041678   0.100941  -2.999101
    H  -1.749013  -1.642813  -1.175075
    H  -1.522269   1.560484  -1.059249
    H  -2.424888   0.043295   1.106496
    H   0.075117  -2.398367   1.174975
    H   2.179832   0.027015   1.059196
    H   1.745267  -1.684029  -1.106574
    H   1.668396   1.731581  -1.086780
    H   0.044700   2.404138   1.086695
    H   0.100840   0.041920   2.999098
    C   1.158609   0.002840   0.704230
    C  -0.817258   0.821271  -0.704264
