20
B8C2H10
    B   0.003277   0.003553   1.847921
    B   0.918478   0.917539  -0.754907
    B   0.914750  -0.916864  -0.758067
    B  -0.914508  -0.921811  -0.757201
    B  -0.000657   1.298035   0.754892
    B  -0.005162  -1.298240   0.757190
    B  -1.294936  -0.001498   0.758049
    B   0.000187   0.004833  -1.847778
    H  -0.003847   0.018781  -3.034804
    H  -1.714719  -1.707165  -1.159244
    H  -1.640475   1.655730  -1.124471
    H  -2.416674   0.006482   1.157300
    H   0.005353  -2.419484   1.159065
    H   2.330629   0.010788   1.124304
    H   1.713528  -1.704351  -1.157483
    H   1.706794   1.717769  -1.148755
    H   0.007779   2.421385   1.148577
    H   0.015988   0.010564   3.034926
    C   1.269081   0.003766   0.749171
    C  -0.894866   0.900189  -0.749179
