20
B8C2H10
    B  -0.931462   0.911235  -0.729891
    B   0.911235  -0.931462  -0.729891
    B  -0.923888  -0.923888  -0.749687
    B  -0.019925   1.288327   0.748334
    B  -0.000598  -1.299847   0.770329
    B   1.288327  -0.019925   0.748334
    B  -1.299847  -0.000598   0.770329
    B   0.003249   0.003249  -1.815520
    H   0.073311   0.073311  -2.985504
    H  -1.703082  -1.703082  -1.169920
    H  -1.643315   1.753347  -1.144988
    H  -2.389285   0.019145   1.215985
    H   0.019145  -2.389285   1.215985
    H   2.393408   0.023519   1.147834
    H   1.753347  -1.643315  -1.144988
    H   1.558883   1.558883  -1.048759
    H   0.023519   2.393408   1.147834
    H   0.041160   0.041160   2.763153
    C   0.009482   0.009482   1.687872
    C   0.836335   0.836335  -0.697333
