20
B8C2H10
    B   0.918852   0.915485  -0.736258
    B  -0.923223   0.926834  -0.744704
    B   0.918852  -0.915485  -0.736258
    B  -0.923223  -0.926834  -0.744704
    B  -0.022451   1.298666   0.751966
    B  -0.022451  -1.298666   0.751966
    B  -1.305108   0.000000   0.756699
    B   0.001647   0.000000  -1.835456
    H   0.036707   0.000000  -3.010512
    H  -1.696225  -1.732646  -1.127978
    H  -1.696225   1.732646  -1.127978
    H  -2.376061   0.000000   1.243021
    H   0.055654  -2.374957   1.218439
    H   2.179831   0.000000   1.121727
    H   1.750209  -1.684767  -1.063663
    H   1.750209   1.684767  -1.063663
    H   0.055654   2.374957   1.218439
    H   0.106106   0.000000   2.749139
    C   0.006476   0.000000   1.677304
    C   1.184770   0.000000   0.701982
