20
B8C2H10
    B   0.007981   0.007736   1.831519
    B  -0.954743   0.891712  -0.749163
    B   0.886184  -0.957983  -0.731541
    B  -0.932748  -0.934182  -0.776047
    B  -0.050770   1.304023   0.731493
    B  -0.044569  -1.305642   0.749114
    B  -1.320117   0.001013   0.775999
    B   0.011112   0.000171  -1.831567
    H   0.168255   0.103188  -2.992998
    H  -1.707586  -1.724305  -1.188750
    H  -1.591269   1.783293  -1.188493
    H  -2.426710   0.011822   1.188704
    H   0.135782  -2.386175   1.188448
    H   2.186605   0.011957   0.989187
    H   1.806405  -1.596699  -1.099032
    H   1.554647   1.537731  -0.989248
    H   0.148286   2.406358   1.098982
    H   0.191941   0.046006   2.992950
    C   1.145192  -0.033447   0.702684
    C   0.786123   0.833422  -0.702732
