20
B8C2H10
    B   0.921017   0.921017  -0.762019
    B  -0.921017   0.921017  -0.762019
    B   0.921017  -0.921017  -0.762019
    B  -0.921017  -0.921017  -0.762019
    B   0.000000   1.302242   0.762014
    B   0.000000  -1.302242   0.762014
    B  -1.302242   0.000000   0.762014
    B   0.000000   0.000000  -1.858882
    H   0.000000   0.000000  -3.060637
    H  -1.724129  -1.724129  -1.166992
    H  -1.724129   1.724129  -1.166992
    H  -2.438107   0.000000   1.166810
    H   0.000000  -2.438107   1.166810
    H   2.438107   0.000000   1.166810
    H   1.724129  -1.724129  -1.166992
    H   1.724129   1.724129  -1.166992
    H   0.000000   2.438107   1.166810
    H   0.000000   0.000000   3.060747
    C   0.000000   0.000000   1.859028
    C   1.302242   0.000000   0.762014
