20
B8C2H10
    B  -0.009491   0.004859   1.832413
    B   0.929197   0.887297  -0.734809
    B   0.915577  -0.937421  -0.755363
    B  -0.901094  -0.946128  -0.752736
    B  -0.029628   1.284461   0.734754
    B  -0.031836  -1.306175   0.752689
    B  -1.310282  -0.015444   0.755310
    B   0.010138  -0.003275  -1.832464
    H  -0.055627   0.116157  -3.000662
    H  -1.764746  -1.622961  -1.185371
    H  -1.523288   1.549662  -1.062048
    H  -2.438820   0.049391   1.092547
    H   0.100266  -2.395472   1.185301
    H   2.172910   0.018646   1.062020
    H   1.759424  -1.689574  -1.092586
    H   1.664126   1.741389  -1.078620
    H   0.054639   2.408068   1.078566
    H   0.121476   0.042810   3.000610
    C   1.151750  -0.000406   0.699752
    C  -0.814693   0.814115  -0.699797
