20
B8C2H10
    B  -0.941655   0.903037  -0.732056
    B   0.903037  -0.941655  -0.732056
    B  -0.935965  -0.935965  -0.754667
    B  -0.025553   1.296689   0.747951
    B  -0.008456  -1.313782   0.772997
    B   1.296689  -0.025553   0.747951
    B  -1.313782  -0.008456   0.772997
    B  -0.006683  -0.006683  -1.821245
    H   0.103435   0.103435  -2.987525
    H  -1.715904  -1.715904  -1.179978
    H  -1.597459   1.778169  -1.177199
    H  -2.389797   0.011166   1.255407
    H   0.011166  -2.389797   1.255407
    H   2.400567   0.047234   1.152389
    H   1.778169  -1.597459  -1.177199
    H   1.534075   1.534075  -1.051903
    H   0.047234   2.400567   1.152389
    H   0.040485   0.040485   2.760979
    C   0.008602   0.008602   1.682517
    C   0.811794   0.811794  -0.687646
