20
B8C2H10
    B   0.920094   0.920094  -0.754533
    B  -0.920094   0.920094  -0.754533
    B   0.920094  -0.920094  -0.754533
    B  -0.920094  -0.920094  -0.754533
    B   0.000000   1.301227   0.754520
    B   0.000000  -1.301227   0.754520
    B   1.301227   0.000000   0.754520
    B  -1.301227   0.000000   0.754520
    H   0.000000   0.000000  -2.760737
    H  -1.692349  -1.692349  -1.197334
    H  -1.692349   1.692349  -1.197334
    H  -2.393408   0.000000   1.197176
    H   0.000000  -2.393408   1.197176
    H   2.393408   0.000000   1.197176
    H   1.692349  -1.692349  -1.197334
    H   1.692349   1.692349  -1.197334
    H   0.000000   2.393408   1.197176
    H   0.000000   0.000000   2.760853
    C   0.000000   0.000000   1.681442
    C   0.000000   0.000000  -1.681364
