22
B9C2H11
    B  -0.950140   1.240463  -0.183798
    B  -1.178427  -0.221407  -1.165499
    B   1.343343  -0.443734  -0.694062
    B  -0.094580  -1.510591  -0.450667
    B   0.909432  -0.929962   0.930637
    B   0.953035   0.954514   0.481450
    B  -1.060116  -0.559781   0.806268
    B   0.274331   0.840967  -1.361809
    B   0.206257  -0.753571  -1.931471
    H   0.345410   0.077221   2.928119
    H  -2.022151  -0.950048   1.364300
    H  -1.036910   1.813503   1.983576
    H   1.766690   1.765207   0.740967
    H   1.592106  -1.713572   1.497004
    H   2.476489  -0.707392  -0.914191
    H  -1.629542   2.196138  -0.364682
    H  -2.326829  -0.207894  -1.450080
    H  -0.187729  -2.686051  -0.321485
    H   0.613346   1.799317  -1.970434
    H   0.407459  -1.201844  -3.002556
    C   0.202391   0.084340   1.853168
    C  -0.603865   1.114177   1.294604
