22
B9C2H11
    B  -0.938057   1.275831  -0.144050
    B  -1.160779  -0.196393  -1.142808
    B   1.349484  -0.443340  -0.686139
    B  -0.096774  -1.515941  -0.445934
    B   0.895560  -0.933182   0.949186
    B   0.959994   0.967357   0.443341
    B  -1.073090  -0.554673   0.783881
    B   0.276173   0.843552  -1.354789
    B   0.217072  -0.766088  -1.920662
    H   0.396965   0.078205   2.931205
    H  -2.028252  -0.980707   1.329037
    H  -1.058013   1.817187   2.037298
    H   1.782319   1.765157   0.717538
    H   1.570531  -1.721247   1.517245
    H   2.486488  -0.710934  -0.890047
    H  -1.632034   2.215150  -0.350308
    H  -2.287114  -0.217519  -1.512158
    H  -0.209884  -2.693703  -0.364297
    H   0.540806   1.777574  -2.034517
    H   0.413846  -1.222834  -2.987706
    C   0.219302   0.100025   1.856299
    C  -0.624543   1.116523   1.337743
