22
B9C2H11
    B  -0.946018   1.278783  -0.130412
    B  -1.155400  -0.220950  -1.090086
    B   1.367391  -0.477719  -0.696127
    B  -0.086265  -1.535799  -0.450498
    B   0.865213  -0.951453   0.952226
    B   0.971390   0.989067   0.400555
    B  -1.106671  -0.540019   0.755084
    B   0.297780   0.842491  -1.336423
    B   0.225688  -0.745130  -1.915422
    H   0.412441   0.083024   2.921802
    H  -2.016939  -0.991783   1.351358
    H  -1.017962   1.841947   2.065091
    H   1.771824   1.791955   0.720850
    H   1.537343  -1.741952   1.522009
    H   2.523833  -0.692595  -0.840707
    H  -1.659275   2.188924  -0.384211
    H  -2.241415  -0.254995  -1.563646
    H  -0.239993  -2.708434  -0.376896
    H   0.523527   1.771490  -2.036686
    H   0.355741  -1.167157  -3.007068
    C   0.226097   0.107434   1.853717
    C  -0.608331   1.132870   1.354852
