22
B9C2H11
    B  -0.094471   1.524326  -0.397498
    B  -1.226817  -0.038780  -0.757311
    B   1.233742  -0.021975  -0.674743
    B  -0.041061  -1.513529  -0.415618
    B   0.908492  -0.942382   0.972726
    B   0.972668   0.876968   0.932443
    B  -0.922683  -0.896365   0.964498
    B  -0.038145   0.796460  -1.876507
    B   0.049043  -0.786925  -1.905658
    H  -0.049356   0.093980   2.962055
    H  -1.786309  -1.505981   1.484387
    H  -1.511788   1.499910   1.415054
    H   1.662853   1.702360   1.410866
    H   1.688506  -1.674180   1.468275
    H   2.384690  -0.015378  -0.965832
    H  -0.124520   2.711232  -0.375298
    H  -2.401478  -0.001055  -0.898704
    H  -0.049533  -2.699568  -0.477997
    H  -0.002092   1.558908  -2.782348
    H   0.116220  -1.514105  -2.837260
    C   0.034388   0.005784   1.890913
    C  -0.802350   0.840294   0.932918
