22
B9C2H11
    B  -0.010175   1.506065  -0.394572
    B  -1.232499   0.007491  -0.681821
    B   1.232990   0.002009  -0.675434
    B  -0.005261  -1.509451  -0.404256
    B   0.903954  -0.902766   0.980840
    B   0.914019   0.901857   0.980678
    B  -0.902880  -0.895337   0.975264
    B  -0.017349   0.787730  -1.877362
    B  -0.000831  -0.795123  -1.891131
    H  -0.037331   0.048830   3.006841
    H  -1.741448  -1.610752   1.394854
    H  -1.582018   1.519549   1.333386
    H   1.687318   1.683801   1.406674
    H   1.704485  -1.652581   1.415250
    H   2.388616   0.016482  -0.942067
    H  -0.026591   2.693216  -0.429590
    H  -2.391914   0.032365  -0.922531
    H  -0.014076  -2.696690  -0.457726
    H  -0.018787   1.522217  -2.807227
    H  -0.001363  -1.516234  -2.832156
    C   0.001181   0.009963   1.944500
    C  -0.850041   0.847356   0.946947
