22
B9C2H11
    B  -0.949588   1.274851  -0.129426
    B  -1.155279  -0.223187  -1.090757
    B   1.367704  -0.476549  -0.696358
    B  -0.084611  -1.536555  -0.452925
    B   0.863036  -0.951320   0.950701
    B   0.970632   0.987972   0.403155
    B  -1.107738  -0.537349   0.753391
    B   0.296080   0.841004  -1.334550
    B   0.226332  -0.746493  -1.915112
    H   0.415007   0.079880   2.921206
    H  -2.019348  -0.987573   1.348722
    H  -1.017335   1.844016   2.065676
    H   1.772312   1.792053   0.717059
    H   1.537117  -1.740291   1.520392
    H   2.525061  -0.685665  -0.841296
    H  -1.658580   2.188964  -0.380762
    H  -2.240827  -0.254035  -1.564971
    H  -0.240140  -2.708835  -0.375034
    H   0.527315   1.769616  -2.033560
    H   0.354941  -1.170933  -3.006011
    C   0.225941   0.106823   1.853880
    C  -0.608030   1.133604   1.355941
