22
B9C2H11
    B  -0.952330   1.271730  -0.128431
    B  -1.154761  -0.222788  -1.091702
    B   1.366668  -0.474720  -0.695716
    B  -0.084310  -1.538668  -0.454011
    B   0.858348  -0.953755   0.950754
    B   0.971108   0.986429   0.405164
    B  -1.108354  -0.536839   0.752487
    B   0.295983   0.840950  -1.334122
    B   0.226710  -0.745861  -1.915644
    H   0.422058   0.084233   2.920636
    H  -2.018610  -0.988571   1.348612
    H  -1.012928   1.848032   2.064897
    H   1.773442   1.790535   0.717601
    H   1.531663  -1.741627   1.522987
    H   2.524220  -0.683387  -0.840237
    H  -1.662927   2.184538  -0.380022
    H  -2.238871  -0.254843  -1.569230
    H  -0.241206  -2.710681  -0.376662
    H   0.526209   1.770705  -2.031861
    H   0.356444  -1.169156  -3.006849
    C   0.227934   0.108981   1.854109
    C  -0.606488   1.134764   1.356599
