22
B9C2H11
    B  -0.025118   1.507952  -0.399735
    B  -1.230235  -0.003870  -0.708910
    B   1.235709  -0.000788  -0.683674
    B  -0.007014  -1.521722  -0.414418
    B   0.915001  -0.924856   0.967864
    B   0.943999   0.895752   0.961337
    B  -0.908083  -0.905508   0.962255
    B  -0.032473   0.783914  -1.879783
    B   0.009871  -0.801465  -1.903555
    H  -0.063137   0.088780   2.960034
    H  -1.770071  -1.549241   1.440712
    H  -1.537173   1.490375   1.365566
    H   1.656244   1.699255   1.443799
    H   1.694023  -1.656566   1.464447
    H   2.390973   0.027624  -0.948624
    H  -0.054845   2.694157  -0.388783
    H  -2.398335   0.043062  -0.893477
    H  -0.014659  -2.708899  -0.454526
    H  -0.024636   1.547876  -2.784520
    H   0.019466  -1.529829  -2.837183
    C   0.016174   0.001797   1.887539
    C  -0.815683   0.822201   0.912994
