22
B9C2H11
    B  -0.694935   1.438268  -0.232870
    B  -1.180343  -0.330500  -1.209087
    B   1.309205  -0.289138  -0.675289
    B  -0.207624  -1.468884  -0.465843
    B   0.890229  -0.891906   0.944430
    B   1.003039   0.893640   0.763752
    B  -1.046144  -0.623275   0.873300
    B  -0.025354   0.794055  -1.695927
    B   0.324695  -0.786250  -1.939348
    H   0.105567  -0.027227   2.977004
    H  -1.876528  -1.252063   1.430531
    H  -1.000667   1.848389   1.982854
    H   1.864552   1.656787   1.011684
    H   1.646906  -1.684975   1.386847
    H   2.477079  -0.378510  -0.892472
    H  -1.059326   2.566246  -0.356489
    H  -2.361174  -0.295685  -1.319672
    H  -0.431987  -2.629071  -0.337322
    H   0.085843   1.703417  -2.447240
    H   0.692289  -1.386633  -2.885877
    C   0.113707   0.023744   1.893371
    C  -0.629027   1.119569   1.263023
