22
B9C2H11
    B  -0.381914   1.524424  -0.332354
    B  -1.226480  -0.188487  -0.999452
    B   1.266315  -0.147422  -0.671581
    B  -0.134657  -1.493707  -0.436479
    B   0.895804  -0.917271   0.959439
    B   0.997628   0.880388   0.863429
    B  -0.988025  -0.775550   0.927876
    B  -0.037883   0.792589  -1.812096
    B   0.194170  -0.792010  -1.932252
    H   0.031695   0.020826   2.978899
    H  -1.821584  -1.400679   1.481146
    H  -1.285036   1.674578   1.743717
    H   1.776212   1.680606   1.237263
    H   1.671343  -1.680473   1.416860
    H   2.427276  -0.187970  -0.929127
    H  -0.557340   2.699466  -0.384843
    H  -2.405520  -0.153032  -1.115818
    H  -0.241941  -2.676054  -0.409334
    H   0.038908   1.610402  -2.665120
    H   0.429916  -1.467688  -2.871889
    C   0.079302   0.012335   1.896590
    C  -0.728187   0.984729   1.124485
