22
B9C2H11
    B  -0.044250   1.514642  -0.405523
    B  -1.228846  -0.012474  -0.728737
    B   1.232849  -0.003939  -0.684969
    B  -0.014186  -1.523070  -0.418808
    B   0.917676  -0.939836   0.966093
    B   0.960051   0.891676   0.950407
    B  -0.914243  -0.911541   0.963374
    B  -0.034990   0.785110  -1.884272
    B   0.018955  -0.797228  -1.907776
    H  -0.060044   0.098018   2.956723
    H  -1.784459  -1.521229   1.472092
    H  -1.528173   1.482206   1.380884
    H   1.643644   1.708109   1.453354
    H   1.691323  -1.666819   1.479699
    H   2.386769   0.020350  -0.960766
    H  -0.072289   2.701301  -0.381310
    H  -2.401413   0.036400  -0.886598
    H  -0.015025  -2.710771  -0.465514
    H  -0.012365   1.553975  -2.785505
    H   0.042477  -1.526634  -2.840734
    C   0.027489  -0.002110   1.887304
    C  -0.810951   0.823865   0.909943
