22
B9C2H11
    B  -0.950535   1.273750  -0.129059
    B  -1.154881  -0.223395  -1.091291
    B   1.367419  -0.475843  -0.696304
    B  -0.084576  -1.537181  -0.453365
    B   0.861843  -0.951714   0.950496
    B   0.970422   0.987530   0.403928
    B  -1.107929  -0.536780   0.753170
    B   0.295750   0.840738  -1.334149
    B   0.226456  -0.746514  -1.915203
    H   0.417192   0.080113   2.921165
    H  -2.019680  -0.987260   1.348069
    H  -1.016496   1.844898   2.066050
    H   1.772604   1.791665   0.716450
    H   1.535989  -1.740050   1.521072
    H   2.524897  -0.684058  -0.841610
    H  -1.659247   2.188114  -0.380163
    H  -2.239902  -0.254130  -1.566721
    H  -0.240997  -2.709286  -0.374730
    H   0.527317   1.769269  -2.033172
    H   0.355488  -1.170932  -3.006057
    C   0.226487   0.107206   1.854139
    C  -0.607620   1.133861   1.356646
