22
B9C2H11
    B  -0.951758   1.272168  -0.128609
    B  -1.154683  -0.222917  -1.091524
    B   1.366789  -0.474870  -0.695894
    B  -0.084404  -1.538505  -0.453858
    B   0.859192  -0.953252   0.950600
    B   0.970801   0.986686   0.404909
    B  -1.108251  -0.536740   0.752750
    B   0.295878   0.840826  -1.334071
    B   0.226540  -0.745979  -1.915569
    H   0.421133   0.082993   2.920840
    H  -2.019000  -0.988283   1.348289
    H  -1.014105   1.847093   2.065221
    H   1.773155   1.790786   0.717265
    H   1.532733  -1.740952   1.522817
    H   2.524354  -0.683088  -0.840864
    H  -1.661683   2.185535  -0.379983
    H  -2.238854  -0.254548  -1.568916
    H  -0.241483  -2.710465  -0.375800
    H   0.526507   1.769983  -2.032497
    H   0.356177  -1.169423  -3.006730
    C   0.227691   0.108508   1.854228
    C  -0.606728   1.134442   1.356754
