22
B9C2H11
    B  -0.036266   1.512211  -0.404807
    B  -1.229502  -0.009592  -0.722958
    B   1.234695  -0.002289  -0.685962
    B  -0.010485  -1.524424  -0.418781
    B   0.918390  -0.936216   0.965557
    B   0.956124   0.894075   0.954141
    B  -0.912750  -0.910917   0.961869
    B  -0.035460   0.783302  -1.883677
    B   0.015660  -0.799935  -1.907962
    H  -0.063213   0.096471   2.956180
    H  -1.781834  -1.528188   1.462916
    H  -1.528203   1.484609   1.376988
    H   1.646039   1.706485   1.454480
    H   1.691942  -1.663457   1.478643
    H   2.389523   0.026222  -0.956351
    H  -0.066704   2.698846  -0.382054
    H  -2.401063   0.041443  -0.886932
    H  -0.014252  -2.712310  -0.460499
    H  -0.018882   1.553499  -2.783826
    H   0.033205  -1.529716  -2.840801
    C   0.024406  -0.002589   1.885635
    C  -0.811369   0.822470   0.907560
