22
B9C2H11
    B  -0.716928   1.416995  -0.267616
    B  -1.194114  -0.301134  -1.169654
    B   1.312505  -0.304942  -0.696372
    B  -0.167782  -1.491316  -0.454544
    B   0.901641  -0.906055   0.914883
    B   0.972167   0.934181   0.743021
    B  -1.031577  -0.638907   0.878721
    B   0.078880   0.794289  -1.649071
    B   0.255690  -0.784769  -1.938031
    H   0.166424  -0.043330   2.963507
    H  -1.892211  -1.197458   1.461088
    H  -1.059415   1.818723   1.950261
    H   1.787251   1.727698   1.047880
    H   1.636084  -1.694880   1.399695
    H   2.475671  -0.410619  -0.913192
    H  -1.145443   2.517919  -0.403661
    H  -2.361863  -0.247386  -1.337078
    H  -0.352294  -2.656038  -0.296090
    H   0.276218   1.718313  -2.364788
    H   0.531235  -1.356253  -2.934567
    C   0.147022   0.001389   1.887043
    C  -0.619162   1.103578   1.247926
