22
B9C2H11
    B  -0.158281   1.528842  -0.388028
    B  -1.223143  -0.075661  -0.802869
    B   1.245857  -0.049611  -0.675302
    B  -0.068274  -1.508296  -0.422732
    B   0.906035  -0.938642   0.964087
    B   0.977454   0.877023   0.919199
    B  -0.938241  -0.866841   0.954858
    B  -0.036428   0.792985  -1.863331
    B   0.090511  -0.789703  -1.912280
    H  -0.031316   0.075697   2.967192
    H  -1.792286  -1.478433   1.488581
    H  -1.470763   1.528870   1.483065
    H   1.683164   1.701682   1.375474
    H   1.682021  -1.680387   1.451819
    H   2.399122  -0.043191  -0.958381
    H  -0.221861   2.714788  -0.382099
    H  -2.398477  -0.027927  -0.929713
    H  -0.113928  -2.694319  -0.461913
    H   0.002730   1.567605  -2.758630
    H   0.198586  -1.507660  -2.846703
    C   0.050287   0.005561   1.894564
    C  -0.782767   0.867620   0.972500
