22
B9C2H11
    B  -0.015550   1.504646  -0.394554
    B  -1.230825   0.003107  -0.692515
    B   1.234849   0.000365  -0.679144
    B  -0.005424  -1.515166  -0.408074
    B   0.908945  -0.911108   0.972944
    B   0.927311   0.896981   0.970772
    B  -0.902919  -0.898297   0.966626
    B  -0.025300   0.785925  -1.876467
    B   0.003741  -0.799509  -1.896449
    H  -0.053354   0.072995   2.976928
    H  -1.752034  -1.578393   1.413997
    H  -1.559891   1.501645   1.349172
    H   1.669976   1.688058   1.424710
    H   1.697292  -1.650456   1.438796
    H   2.389040   0.022766  -0.942405
    H  -0.039641   2.689484  -0.404856
    H  -2.392970   0.039905  -0.905643
    H  -0.015336  -2.700412  -0.452671
    H  -0.023984   1.534839  -2.791409
    H   0.006606  -1.523586  -2.831720
    C   0.007578   0.008089   1.903916
    C  -0.828112   0.828120   0.927408
