22
B9C2H11
    B  -0.108785   1.525810  -0.395754
    B  -1.226240  -0.047471  -0.767111
    B   1.237465  -0.028415  -0.674636
    B  -0.047634  -1.512587  -0.417316
    B   0.907941  -0.941600   0.971124
    B   0.974046   0.876757   0.929765
    B  -0.926291  -0.889520   0.962287
    B  -0.038540   0.795657  -1.873766
    B   0.059295  -0.787401  -1.907455
    H  -0.045870   0.090341   2.962924
    H  -1.787443  -1.501048   1.484169
    H  -1.501971   1.506983   1.430585
    H   1.668717   1.701828   1.402140
    H   1.687103  -1.675737   1.464764
    H   2.389007  -0.020886  -0.963439
    H  -0.147025   2.712607  -0.376383
    H  -2.401042  -0.006516  -0.905112
    H  -0.066035  -2.698746  -0.474194
    H  -0.003024   1.561039  -2.777223
    H   0.136440  -1.513314  -2.839209
    C   0.037817   0.005776   1.891788
    C  -0.797930   0.846442   0.941413
