22
B9C2H11
    B  -0.070718   1.520582  -0.401524
    B  -1.227120  -0.024198  -0.742953
    B   1.228940  -0.011812  -0.678244
    B  -0.028407  -1.516332  -0.415323
    B   0.911651  -0.943613   0.970831
    B   0.968111   0.881569   0.938657
    B  -0.917422  -0.906676   0.966635
    B  -0.034697   0.793852  -1.880946
    B   0.031909  -0.789065  -1.904305
    H  -0.052457   0.097827   2.959893
    H  -1.785564  -1.510280   1.486033
    H  -1.527062   1.486420   1.393153
    H   1.648822   1.706140   1.432193
    H   1.689987  -1.672333   1.473760
    H   2.379944  -0.002627  -0.968710
    H  -0.092653   2.707353  -0.377392
    H  -2.401271   0.013473  -0.890480
    H  -0.024898  -2.702709  -0.478435
    H   0.001394   1.555452  -2.787482
    H   0.078308  -1.516952  -2.836926
    C   0.031666   0.003213   1.889820
    C  -0.808462   0.830715   0.921107
